Loading mkl version 2021.2.0
Loading compiler-rt version 2021.2.0
Loading tbb version 2021.2.0
Loading compiler version 2021.2.0
Loading tbb version 2021.2.0
Loading compiler-rt version 2021.2.0
Loading mpi version 2021.2.0
/opt/intel_2021/oneapi/mpi/2021.2.0/bin/mpirun
/opt/intel_2021/oneapi/mpi/2021.2.0/bin/mpiifort
/opt/intel_2021/oneapi/compiler/2021.2.0/linux/bin/intel64/icc
/*---------------------------------------------------------------------------*\
| =========                 |                                                 |
| \\      /  F ield         | OpenFOAM: The Open Source CFD Toolbox           |
|  \\    /   O peration     | Version:  v2106                                 |
|   \\  /    A nd           | Website:  www.openfoam.com                      |
|    \\/     M anipulation  |                                                 |
\*---------------------------------------------------------------------------*/
Build  : _c15bfde3cb-20210624 OPENFOAM=2106
Arch   : "LSB;label=32;scalar=64"
Exec   : decomposePar
Date   : Oct 29 2021
Time   : 23:45:00
Host   : node2.iitgn.ac.in
PID    : 187694
I/O    : uncollated
Case   : /home/DilipSS_grp/17210069/OF/ICEF/axissym/0.5ms_co_0.01
nProcs : 1
trapFpe: Floating point exception trapping enabled (FOAM_SIGFPE).
fileModificationChecking : Monitoring run-time modified files using timeStampMaster (fileModificationSkew 5, maxFileModificationPolls 20)
allowSystemOperations : Allowing user-supplied system call operations

// * * * * * * * * * * * * * * * * * * * * * * * * * * * * * * * * * * * * * //
Create time



Decomposing mesh

Create mesh

Calculating distribution of cells
Decomposition method simple [40] (region region0)

Finished decomposition in 0.24 s

Calculating original mesh data

Distributing cells to processors

Distributing faces to processors

Distributing points to processors

Constructing processor meshes

Processor 0
    Number of cells = 5216
    Number of faces shared with processor 1 = 228
    Number of faces shared with processor 2 = 245
    Number of faces shared with processor 3 = 18
    Number of processor patches = 3
    Number of processor faces = 491
    Number of boundary faces = 5595

Processor 1
    Number of cells = 11704
    Number of faces shared with processor 0 = 228
    Number of faces shared with processor 3 = 474
    Number of processor patches = 2
    Number of processor faces = 702
    Number of boundary faces = 4835

Processor 2
    Number of cells = 8343
    Number of faces shared with processor 0 = 245
    Number of faces shared with processor 3 = 425
    Number of faces shared with processor 4 = 386
    Number of faces shared with processor 5 = 34
    Number of processor patches = 4
    Number of processor faces = 1090
    Number of boundary faces = 7024

Processor 3
    Number of cells = 8577
    Number of faces shared with processor 0 = 18
    Number of faces shared with processor 1 = 474
    Number of faces shared with processor 2 = 425
    Number of faces shared with processor 5 = 987
    Number of processor patches = 4
    Number of processor faces = 1904
    Number of boundary faces = 3091

Processor 4
    Number of cells = 7743
    Number of faces shared with processor 2 = 386
    Number of faces shared with processor 5 = 268
    Number of faces shared with processor 6 = 536
    Number of faces shared with processor 7 = 20
    Number of processor patches = 4
    Number of processor faces = 1210
    Number of boundary faces = 5530

Processor 5
    Number of cells = 9176
    Number of faces shared with processor 2 = 34
    Number of faces shared with processor 3 = 987
    Number of faces shared with processor 4 = 268
    Number of faces shared with processor 7 = 1392
    Number of processor patches = 4
    Number of processor faces = 2681
    Number of boundary faces = 3216

Processor 6
    Number of cells = 7866
    Number of faces shared with processor 4 = 536
    Number of faces shared with processor 7 = 190
    Number of faces shared with processor 8 = 667
    Number of faces shared with processor 9 = 4
    Number of processor patches = 4
    Number of processor faces = 1397
    Number of boundary faces = 5070

Processor 7
    Number of cells = 9053
    Number of faces shared with processor 4 = 20
    Number of faces shared with processor 5 = 1392
    Number of faces shared with processor 6 = 190
    Number of faces shared with processor 8 = 3
    Number of faces shared with processor 9 = 1716
    Number of processor patches = 5
    Number of processor faces = 3321
    Number of boundary faces = 2922

Processor 8
    Number of cells = 7965
    Number of faces shared with processor 6 = 667
    Number of faces shared with processor 7 = 3
    Number of faces shared with processor 9 = 146
    Number of faces shared with processor 10 = 789
    Number of faces shared with processor 11 = 14
    Number of processor patches = 5
    Number of processor faces = 1619
    Number of boundary faces = 4758

Processor 9
    Number of cells = 8954
    Number of faces shared with processor 6 = 4
    Number of faces shared with processor 7 = 1716
    Number of faces shared with processor 8 = 146
    Number of faces shared with processor 11 = 1968
    Number of processor patches = 4
    Number of processor faces = 3834
    Number of boundary faces = 2570

Processor 10
    Number of cells = 8669
    Number of faces shared with processor 8 = 789
    Number of faces shared with processor 11 = 141
    Number of faces shared with processor 12 = 972
    Number of faces shared with processor 13 = 18
    Number of processor patches = 4
    Number of processor faces = 1920
    Number of boundary faces = 4724

Processor 11
    Number of cells = 8250
    Number of faces shared with processor 8 = 14
    Number of faces shared with processor 9 = 1968
    Number of faces shared with processor 10 = 141
    Number of faces shared with processor 13 = 2056
    Number of processor patches = 4
    Number of processor faces = 4179
    Number of boundary faces = 2324

Processor 12
    Number of cells = 9551
    Number of faces shared with processor 10 = 972
    Number of faces shared with processor 13 = 103
    Number of faces shared with processor 14 = 1186
    Number of faces shared with processor 15 = 12
    Number of processor patches = 4
    Number of processor faces = 2273
    Number of boundary faces = 4750

Processor 13
    Number of cells = 7368
    Number of faces shared with processor 10 = 18
    Number of faces shared with processor 11 = 2056
    Number of faces shared with processor 12 = 103
    Number of faces shared with processor 15 = 2118
    Number of processor patches = 4
    Number of processor faces = 4295
    Number of boundary faces = 2118

Processor 14
    Number of cells = 9901
    Number of faces shared with processor 12 = 1186
    Number of faces shared with processor 15 = 77
    Number of faces shared with processor 16 = 1196
    Number of faces shared with processor 17 = 9
    Number of processor patches = 4
    Number of processor faces = 2468
    Number of boundary faces = 3616

Processor 15
    Number of cells = 7018
    Number of faces shared with processor 12 = 12
    Number of faces shared with processor 13 = 2118
    Number of faces shared with processor 14 = 77
    Number of faces shared with processor 16 = 1
    Number of faces shared with processor 17 = 2187
    Number of processor patches = 5
    Number of processor faces = 4395
    Number of boundary faces = 1997

Processor 16
    Number of cells = 9670
    Number of faces shared with processor 14 = 1196
    Number of faces shared with processor 15 = 1
    Number of faces shared with processor 17 = 67
    Number of faces shared with processor 18 = 1171
    Number of faces shared with processor 19 = 5
    Number of processor patches = 5
    Number of processor faces = 2440
    Number of boundary faces = 3176

Processor 17
    Number of cells = 7249
    Number of faces shared with processor 14 = 9
    Number of faces shared with processor 15 = 2187
    Number of faces shared with processor 16 = 67
    Number of faces shared with processor 19 = 2146
    Number of processor patches = 4
    Number of processor faces = 4409
    Number of boundary faces = 2080

Processor 18
    Number of cells = 9533
    Number of faces shared with processor 16 = 1171
    Number of faces shared with processor 19 = 44
    Number of faces shared with processor 20 = 1111
    Number of processor patches = 3
    Number of processor faces = 2326
    Number of boundary faces = 3108

Processor 19
    Number of cells = 7386
    Number of faces shared with processor 16 = 5
    Number of faces shared with processor 17 = 2146
    Number of faces shared with processor 18 = 44
    Number of faces shared with processor 21 = 2091
    Number of processor patches = 4
    Number of processor faces = 4286
    Number of boundary faces = 2118

Processor 20
    Number of cells = 9385
    Number of faces shared with processor 18 = 1111
    Number of faces shared with processor 21 = 50
    Number of faces shared with processor 22 = 1165
    Number of processor patches = 3
    Number of processor faces = 2326
    Number of boundary faces = 2849

Processor 21
    Number of cells = 7534
    Number of faces shared with processor 19 = 2091
    Number of faces shared with processor 20 = 50
    Number of faces shared with processor 22 = 4
    Number of faces shared with processor 23 = 2137
    Number of processor patches = 4
    Number of processor faces = 4282
    Number of boundary faces = 2160

Processor 22
    Number of cells = 9546
    Number of faces shared with processor 20 = 1165
    Number of faces shared with processor 21 = 4
    Number of faces shared with processor 23 = 71
    Number of faces shared with processor 24 = 1215
    Number of processor patches = 4
    Number of processor faces = 2455
    Number of boundary faces = 3186

Processor 23
    Number of cells = 7373
    Number of faces shared with processor 21 = 2137
    Number of faces shared with processor 22 = 71
    Number of faces shared with processor 24 = 12
    Number of faces shared with processor 25 = 2150
    Number of processor patches = 4
    Number of processor faces = 4370
    Number of boundary faces = 2102

Processor 24
    Number of cells = 9867
    Number of faces shared with processor 22 = 1215
    Number of faces shared with processor 23 = 12
    Number of faces shared with processor 25 = 76
    Number of faces shared with processor 26 = 1151
    Number of processor patches = 4
    Number of processor faces = 2454
    Number of boundary faces = 3715

Processor 25
    Number of cells = 7052
    Number of faces shared with processor 23 = 2150
    Number of faces shared with processor 24 = 76
    Number of faces shared with processor 26 = 11
    Number of faces shared with processor 27 = 2112
    Number of processor patches = 4
    Number of processor faces = 4349
    Number of boundary faces = 2019

Processor 26
    Number of cells = 9459
    Number of faces shared with processor 24 = 1151
    Number of faces shared with processor 25 = 11
    Number of faces shared with processor 27 = 103
    Number of faces shared with processor 28 = 1000
    Number of faces shared with processor 29 = 3
    Number of processor patches = 5
    Number of processor faces = 2268
    Number of boundary faces = 4771

Processor 27
    Number of cells = 7460
    Number of faces shared with processor 25 = 2112
    Number of faces shared with processor 26 = 103
    Number of faces shared with processor 28 = 10
    Number of faces shared with processor 29 = 2069
    Number of processor patches = 4
    Number of processor faces = 4294
    Number of boundary faces = 2121

Processor 28
    Number of cells = 8761
    Number of faces shared with processor 26 = 1000
    Number of faces shared with processor 27 = 10
    Number of faces shared with processor 29 = 150
    Number of faces shared with processor 30 = 811
    Number of faces shared with processor 31 = 3
    Number of processor patches = 5
    Number of processor faces = 1974
    Number of boundary faces = 4639

Processor 29
    Number of cells = 8158
    Number of faces shared with processor 26 = 3
    Number of faces shared with processor 27 = 2069
    Number of faces shared with processor 28 = 150
    Number of faces shared with processor 30 = 7
    Number of faces shared with processor 31 = 1978
    Number of processor patches = 5
    Number of processor faces = 4207
    Number of boundary faces = 2308

Processor 30
    Number of cells = 7989
    Number of faces shared with processor 28 = 811
    Number of faces shared with processor 29 = 7
    Number of faces shared with processor 31 = 153
    Number of faces shared with processor 32 = 656
    Number of processor patches = 4
    Number of processor faces = 1627
    Number of boundary faces = 4805

Processor 31
    Number of cells = 8930
    Number of faces shared with processor 28 = 3
    Number of faces shared with processor 29 = 1978
    Number of faces shared with processor 30 = 153
    Number of faces shared with processor 32 = 16
    Number of faces shared with processor 33 = 1701
    Number of processor patches = 5
    Number of processor faces = 3851
    Number of boundary faces = 2599

Processor 32
    Number of cells = 7772
    Number of faces shared with processor 30 = 656
    Number of faces shared with processor 31 = 16
    Number of faces shared with processor 33 = 191
    Number of faces shared with processor 34 = 536
    Number of processor patches = 4
    Number of processor faces = 1399
    Number of boundary faces = 5042

Processor 33
    Number of cells = 9147
    Number of faces shared with processor 31 = 1701
    Number of faces shared with processor 32 = 191
    Number of faces shared with processor 34 = 10
    Number of faces shared with processor 35 = 1378
    Number of processor patches = 4
    Number of processor faces = 3280
    Number of boundary faces = 2917

Processor 34
    Number of cells = 7607
    Number of faces shared with processor 32 = 536
    Number of faces shared with processor 33 = 10
    Number of faces shared with processor 35 = 284
    Number of faces shared with processor 36 = 368
    Number of processor patches = 4
    Number of processor faces = 1198
    Number of boundary faces = 5617

Processor 35
    Number of cells = 9312
    Number of faces shared with processor 33 = 1378
    Number of faces shared with processor 34 = 284
    Number of faces shared with processor 36 = 30
    Number of faces shared with processor 37 = 991
    Number of processor patches = 4
    Number of processor faces = 2683
    Number of boundary faces = 3253

Processor 36
    Number of cells = 8594
    Number of faces shared with processor 34 = 368
    Number of faces shared with processor 35 = 30
    Number of faces shared with processor 37 = 421
    Number of faces shared with processor 38 = 250
    Number of processor patches = 4
    Number of processor faces = 1069
    Number of boundary faces = 6895

Processor 37
    Number of cells = 8325
    Number of faces shared with processor 35 = 991
    Number of faces shared with processor 36 = 421
    Number of faces shared with processor 38 = 17
    Number of faces shared with processor 39 = 458
    Number of processor patches = 4
    Number of processor faces = 1887
    Number of boundary faces = 2974

Processor 38
    Number of cells = 5754
    Number of faces shared with processor 36 = 250
    Number of faces shared with processor 37 = 17
    Number of faces shared with processor 39 = 212
    Number of processor patches = 3
    Number of processor faces = 479
    Number of boundary faces = 5481

Processor 39
    Number of cells = 11165
    Number of faces shared with processor 37 = 458
    Number of faces shared with processor 38 = 212
    Number of processor patches = 2
    Number of processor faces = 670
    Number of boundary faces = 4783

Number of processor faces = 51181
Max number of cells = 11704 (38.3525128405% above average 8459.55)
Max number of processor patches = 5 (25% above average 4)
Max number of faces between processors = 4409 (72.2904984272% above average 2559.05)

Time = 0

Processor 0: field transfer
Processor 1: field transfer
Processor 2: field transfer
Processor 3: field transfer
Processor 4: field transfer
Processor 5: field transfer
Processor 6: field transfer
Processor 7: field transfer
Processor 8: field transfer
Processor 9: field transfer
Processor 10: field transfer
Processor 11: field transfer
Processor 12: field transfer
Processor 13: field transfer
Processor 14: field transfer
Processor 15: field transfer
Processor 16: field transfer
Processor 17: field transfer
Processor 18: field transfer
Processor 19: field transfer
Processor 20: field transfer
Processor 21: field transfer
Processor 22: field transfer
Processor 23: field transfer
Processor 24: field transfer
Processor 25: field transfer
Processor 26: field transfer
Processor 27: field transfer
Processor 28: field transfer
Processor 29: field transfer
Processor 30: field transfer
Processor 31: field transfer
Processor 32: field transfer
Processor 33: field transfer
Processor 34: field transfer
Processor 35: field transfer
Processor 36: field transfer
Processor 37: field transfer
Processor 38: field transfer
Processor 39: field transfer

End

/*---------------------------------------------------------------------------*\
| =========                 |                                                 |
| \\      /  F ield         | OpenFOAM: The Open Source CFD Toolbox           |
|  \\    /   O peration     | Version:  v2106                                 |
|   \\  /    A nd           | Website:  www.openfoam.com                      |
|    \\/     M anipulation  |                                                 |
\*---------------------------------------------------------------------------*/
Build  : _c15bfde3cb-20210624 OPENFOAM=2106
Arch   : "LSB;label=32;scalar=64"
Exec   : interCondensatingEvaporatingFoam -parallel
Date   : Oct 29 2021
Time   : 23:45:53
Host   : node2.iitgn.ac.in
PID    : 187729
I/O    : uncollated
Case   : /home/DilipSS_grp/17210069/OF/ICEF/axissym/0.5ms_co_0.01
nProcs : 40
Hosts  :
(
    (node2.iitgn.ac.in 40)
)
Pstream initialized with:
    floatTransfer      : 0
    nProcsSimpleSum    : 0
    commsType          : nonBlocking
    polling iterations : 0
trapFpe: Floating point exception trapping enabled (FOAM_SIGFPE).
fileModificationChecking : Monitoring run-time modified files using timeStampMaster (fileModificationSkew 5, maxFileModificationPolls 20)
allowSystemOperations : Allowing user-supplied system call operations

// * * * * * * * * * * * * * * * * * * * * * * * * * * * * * * * * * * * * * //
Create time

Create mesh for time = 0


PIMPLE: Operating solver in PISO mode

Reading field p_rgh

Reading field U

Reading/calculating face flux field phi

Selecting incompressible transport model Newtonian
Selecting incompressible transport model Newtonian
Creating temperaturePhaseChangeTwoPhaseMixture

Selecting phaseChange model interfaceHeatResistance
DICPCG:  Solving for mDotSmear, Initial residual = 0.999999999976, Final residual = 8.6604084911e-07, No Iterations 49
Selecting turbulence model type laminar
Selecting laminar stress model Stokes

Reading g

Reading hRef
Calculating field g.h

No MRF models present

No finite volume options present
DICPCG:  Solving for pcorr, Initial residual = 0, Final residual = 0, No Iterations 0
time step continuity errors : sum local = 0, global = 0, cumulative = 0
Courant Number mean: 0 max: 0

Starting time loop

Courant Number mean: 0 max: 0
Interface Courant Number mean: 0 max: 0
deltaT = 1.25e-06
Time = 1.25e-06

PIMPLE: iteration 1
DICPCG:  Solving for mDotSmear, Initial residual = 0.999999999976, Final residual = 8.6604084911e-07, No Iterations 49
MULES: Solving for alpha.liquid
MULES: Solving for alpha.liquid
Liquid phase volume fraction = 0.999000071072  Min(alpha.liquid) = 0  Max(alpha.liquid) = 1
MULES: Solving for alpha.liquid
MULES: Solving for alpha.liquid
Liquid phase volume fraction = 0.999000066464  Min(alpha.liquid) = 0  Max(alpha.liquid) = 1
smoothSolver:  Solving for Ux, Initial residual = 1, Final residual = 1.3435230316e-05, No Iterations 50
smoothSolver:  Solving for Uy, Initial residual = 1, Final residual = 2.10916591007e-05, No Iterations 50
smoothSolver:  Solving for Uz, Initial residual = 1, Final residual = 4.174845036e-05, No Iterations 50
smoothSolver:  Solving for T, Initial residual = 5.08955197421e-05, Final residual = 4.9928094845e-08, No Iterations 15
min/max(T) = 373, 378.024799911
DICPCG:  Solving for p_rgh, Initial residual = 0.354522460227, Final residual = 0.000345072577569, No Iterations 607
DICPCG:  Solving for p_rgh, Initial residual = 0.0318360886628, Final residual = 3.13086901357e-05, No Iterations 638
DICPCG:  Solving for p_rgh, Initial residual = 0.00788548326505, Final residual = 7.64184998553e-06, No Iterations 638
DICPCG:  Solving for p_rgh, Initial residual = 0.0219617499897, Final residual = 9.97623416286e-10, No Iterations 987
ExecutionTime = 1.25 s  ClockTime = 1 s

Courant Number mean: 0.000963963062198 max: 303.145853782
Interface Courant Number mean: 0 max: 0
deltaT = 4.1234295624e-11
Time = 1.250041234e-06

PIMPLE: iteration 1
DICPCG:  Solving for mDotSmear, Initial residual = 0.999999999979, Final residual = 8.42534230759e-07, No Iterations 49
MULES: Solving for alpha.liquid
MULES: Solving for alpha.liquid
Liquid phase volume fraction = 0.999000066277  Min(alpha.liquid) = -2.64510448448e-23  Max(alpha.liquid) = 1
MULES: Solving for alpha.liquid
MULES: Solving for alpha.liquid
Liquid phase volume fraction = 0.999000066089  Min(alpha.liquid) = -2.20389893268e-22  Max(alpha.liquid) = 1
smoothSolver:  Solving for Ux, Initial residual = 5.97781909624e-06, Final residual = 9.03272368843e-18, No Iterations 15
smoothSolver:  Solving for Uy, Initial residual = 1.08628124278e-05, Final residual = 1.49592712195e-17, No Iterations 15
smoothSolver:  Solving for Uz, Initial residual = 5.58258409278e-06, Final residual = 9.654555799e-18, No Iterations 15
smoothSolver:  Solving for T, Initial residual = 3.34514447911e-09, Final residual = 1.22012938983e-13, No Iterations 15
min/max(T) = 373, 378.024799868
DICPCG:  Solving for p_rgh, Initial residual = 0.88587600861, Final residual = 0.000877395724308, No Iterations 807
DICPCG:  Solving for p_rgh, Initial residual = 0.000237984141456, Final residual = 2.33167615706e-07, No Iterations 764
DICPCG:  Solving for p_rgh, Initial residual = 7.7815916908e-06, Final residual = 7.30869235247e-09, No Iterations 780
DICPCG:  Solving for p_rgh, Initial residual = 2.63212154777e-06, Final residual = 9.7702996797e-10, No Iterations 743
ExecutionTime = 2.23 s  ClockTime = 2 s

Courant Number mean: 1.8259220286e-08 max: 0.0100823212213
Interface Courant Number mean: 0 max: 0
deltaT = 4.08975955172e-11
Time = 1.250082132e-06

PIMPLE: iteration 1
DICPCG:  Solving for mDotSmear, Initial residual = 0.99999999998, Final residual = 8.54665720806e-07, No Iterations 49
MULES: Solving for alpha.liquid
MULES: Solving for alpha.liquid
Liquid phase volume fraction = 0.999000065856  Min(alpha.liquid) = -1.51254610165e-22  Max(alpha.liquid) = 1
MULES: Solving for alpha.liquid
MULES: Solving for alpha.liquid
Liquid phase volume fraction = 0.999000065624  Min(alpha.liquid) = -1.32576432523e-22  Max(alpha.liquid) = 1
smoothSolver:  Solving for Ux, Initial residual = 0.79505956149, Final residual = 3.75698972045e-16, No Iterations 15
smoothSolver:  Solving for Uy, Initial residual = 0.274065168965, Final residual = 6.27098206157e-17, No Iterations 15
smoothSolver:  Solving for Uz, Initial residual = 0.0601833445935, Final residual = 1.48044361301e-16, No Iterations 15
smoothSolver:  Solving for T, Initial residual = 3.62833411354e-09, Final residual = 1.21523234557e-13, No Iterations 15
min/max(T) = 373, 378.024799825
DICPCG:  Solving for p_rgh, Initial residual = 0.0343058316384, Final residual = 3.30248292623e-05, No Iterations 807
DICPCG:  Solving for p_rgh, Initial residual = 0.000149037932199, Final residual = 1.43647037606e-07, No Iterations 787
DICPCG:  Solving for p_rgh, Initial residual = 4.48390849691e-06, Final residual = 4.41077765524e-09, No Iterations 777
DICPCG:  Solving for p_rgh, Initial residual = 1.74447141828e-06, Final residual = 9.94083238938e-10, No Iterations 716
ExecutionTime = 3.19 s  ClockTime = 3 s

Courant Number mean: 4.4383026287e-08 max: 0.00985568777798
Interface Courant Number mean: 0 max: 0
deltaT = 4.14965349741e-11
Time = 1.250123628e-06

PIMPLE: iteration 1
DICPCG:  Solving for mDotSmear, Initial residual = 0.99999999998, Final residual = 8.56287050893e-07, No Iterations 49
MULES: Solving for alpha.liquid
MULES: Solving for alpha.liquid
Liquid phase volume fraction = 0.999000065404  Min(alpha.liquid) = -5.68767856671e-22  Max(alpha.liquid) = 1
MULES: Solving for alpha.liquid
MULES: Solving for alpha.liquid
Liquid phase volume fraction = 0.999000065184  Min(alpha.liquid) = -6.03649291742e-22  Max(alpha.liquid) = 1
smoothSolver:  Solving for Ux, Initial residual = 0.113486154652, Final residual = 2.86482940969e-17, No Iterations 15
smoothSolver:  Solving for Uy, Initial residual = 0.31367215888, Final residual = 7.06708944775e-17, No Iterations 15
smoothSolver:  Solving for Uz, Initial residual = 0.0850433476984, Final residual = 4.55677620501e-17, No Iterations 15
smoothSolver:  Solving for T, Initial residual = 3.3567311625e-09, Final residual = 1.22025440488e-13, No Iterations 15
min/max(T) = 373, 378.024799781
DICPCG:  Solving for p_rgh, Initial residual = 0.015236808785, Final residual = 1.50607525107e-05, No Iterations 810
DICPCG:  Solving for p_rgh, Initial residual = 0.000135844471731, Final residual = 1.32445423535e-07, No Iterations 816
DICPCG:  Solving for p_rgh, Initial residual = 3.97193271935e-06, Final residual = 3.87895989384e-09, No Iterations 674
DICPCG:  Solving for p_rgh, Initial residual = 1.2064538681e-06, Final residual = 9.78635452887e-10, No Iterations 717
ExecutionTime = 4.13 s  ClockTime = 4 s

Courant Number mean: 2.97129143992e-08 max: 0.00989674070889
Interface Courant Number mean: 0 max: 0
deltaT = 4.19294347429e-11
Time = 1.250165558e-06

PIMPLE: iteration 1
DICPCG:  Solving for mDotSmear, Initial residual = 0.99999999998, Final residual = 8.46710503188e-07, No Iterations 49
MULES: Solving for alpha.liquid
MULES: Solving for alpha.liquid
Liquid phase volume fraction = 0.99900006496  Min(alpha.liquid) = -8.33347021947e-22  Max(alpha.liquid) = 1
MULES: Solving for alpha.liquid
MULES: Solving for alpha.liquid
Liquid phase volume fraction = 0.999000064737  Min(alpha.liquid) = -1.05452669008e-21  Max(alpha.liquid) = 1
smoothSolver:  Solving for Ux, Initial residual = 0.0767441687684, Final residual = 1.01933760574e-17, No Iterations 15
smoothSolver:  Solving for Uy, Initial residual = 0.33710599429, Final residual = 3.49919651386e-17, No Iterations 15
smoothSolver:  Solving for Uz, Initial residual = 0.0547316991018, Final residual = 2.11786654646e-17, No Iterations 15
smoothSolver:  Solving for T, Initial residual = 3.38434505767e-09, Final residual = 1.21942456478e-13, No Iterations 15
min/max(T) = 373, 378.024799736
DICPCG:  Solving for p_rgh, Initial residual = 0.0189019902336, Final residual = 1.85540430029e-05, No Iterations 802
DICPCG:  Solving for p_rgh, Initial residual = 0.000243551957569, Final residual = 2.42133596176e-07, No Iterations 820
DICPCG:  Solving for p_rgh, Initial residual = 1.03170020083e-05, Final residual = 1.02388704057e-08, No Iterations 796
DICPCG:  Solving for p_rgh, Initial residual = 4.8364498881e-06, Final residual = 9.99634223228e-10, No Iterations 757
ExecutionTime = 5.12 s  ClockTime = 5 s

Courant Number mean: 2.59699201468e-08 max: 0.00992039175473
Interface Courant Number mean: 0 max: 0
deltaT = 4.22658521302e-11
Time = 1.250207824e-06

PIMPLE: iteration 1
DICPCG:  Solving for mDotSmear, Initial residual = 0.99999999998, Final residual = 8.40028252188e-07, No Iterations 49
MULES: Solving for alpha.liquid
MULES: Solving for alpha.liquid
Liquid phase volume fraction = 0.999000064506  Min(alpha.liquid) = -3.13254319259e-22  Max(alpha.liquid) = 1
MULES: Solving for alpha.liquid
MULES: Solving for alpha.liquid
Liquid phase volume fraction = 0.999000064276  Min(alpha.liquid) = -8.43224797522e-22  Max(alpha.liquid) = 1
smoothSolver:  Solving for Ux, Initial residual = 0.0152424438944, Final residual = 7.15219567778e-18, No Iterations 15
smoothSolver:  Solving for Uy, Initial residual = 0.0501224253666, Final residual = 1.81158259042e-17, No Iterations 15
smoothSolver:  Solving for Uz, Initial residual = 0.0124516715625, Final residual = 1.65254383159e-17, No Iterations 15
smoothSolver:  Solving for T, Initial residual = 3.46272336892e-09, Final residual = 1.2187418338e-13, No Iterations 15
min/max(T) = 373, 378.024799691
DICPCG:  Solving for p_rgh, Initial residual = 0.02350602609, Final residual = 2.34457262861e-05, No Iterations 806
DICPCG:  Solving for p_rgh, Initial residual = 0.000580858904636, Final residual = 5.78481804742e-07, No Iterations 775
DICPCG:  Solving for p_rgh, Initial residual = 9.30966021228e-05, Final residual = 9.09907853689e-08, No Iterations 752
DICPCG:  Solving for p_rgh, Initial residual = 4.64112217833e-05, Final residual = 9.79834874326e-10, No Iterations 856
ExecutionTime = 6.15 s  ClockTime = 6 s

Courant Number mean: 2.60399264243e-08 max: 0.00993744933296
Interface Courant Number mean: 0 max: 0
deltaT = 4.25319102691e-11
Time = 1.250250356e-06

PIMPLE: iteration 1
DICPCG:  Solving for mDotSmear, Initial residual = 0.99999999998, Final residual = 8.266893676e-07, No Iterations 49
MULES: Solving for alpha.liquid
MULES: Solving for alpha.liquid
Liquid phase volume fraction = 0.999000064043  Min(alpha.liquid) = -4.32756803867e-22  Max(alpha.liquid) = 1
MULES: Solving for alpha.liquid
MULES: Solving for alpha.liquid
Liquid phase volume fraction = 0.999000063811  Min(alpha.liquid) = -7.90149454359e-22  Max(alpha.liquid) = 1
smoothSolver:  Solving for Ux, Initial residual = 0.0086110085033, Final residual = 5.5580080688e-18, No Iterations 15
smoothSolver:  Solving for Uy, Initial residual = 0.0254929123656, Final residual = 1.31644631544e-17, No Iterations 15
smoothSolver:  Solving for Uz, Initial residual = 0.00475122690972, Final residual = 8.87454782925e-18, No Iterations 15
smoothSolver:  Solving for T, Initial residual = 3.4825438249e-09, Final residual = 1.22338924602e-13, No Iterations 15
min/max(T) = 373, 378.024799645
DICPCG:  Solving for p_rgh, Initial residual = 0.0499092163781, Final residual = 4.92255864957e-05, No Iterations 745
DICPCG:  Solving for p_rgh, Initial residual = 0.000588659396475, Final residual = 5.65760941361e-07, No Iterations 735
DICPCG:  Solving for p_rgh, Initial residual = 0.000143601978419, Final residual = 1.35656179589e-07, No Iterations 759
DICPCG:  Solving for p_rgh, Initial residual = 8.49920643812e-05, Final residual = 9.54668940003e-10, No Iterations 819
ExecutionTime = 7.12 s  ClockTime = 7 s

Courant Number mean: 2.97163900619e-08 max: 0.0260243943419
Interface Courant Number mean: 3.1012213626e-11 max: 0.00220889069579
deltaT = 1.6343094601e-11
Time = 1.250266699e-06

PIMPLE: iteration 1
DICPCG:  Solving for mDotSmear, Initial residual = 0.99999999998, Final residual = 8.03328212174e-07, No Iterations 49
MULES: Solving for alpha.liquid
MULES: Solving for alpha.liquid
Liquid phase volume fraction = 0.999000063723  Min(alpha.liquid) = -4.82559887097e-22  Max(alpha.liquid) = 1
MULES: Solving for alpha.liquid
MULES: Solving for alpha.liquid
Liquid phase volume fraction = 0.999000063636  Min(alpha.liquid) = -1.03104304043e-21  Max(alpha.liquid) = 1
smoothSolver:  Solving for Ux, Initial residual = 0.00525883619012, Final residual = 4.26695074158e-18, No Iterations 15
smoothSolver:  Solving for Uy, Initial residual = 0.0528340528677, Final residual = 4.11898685861e-17, No Iterations 15
smoothSolver:  Solving for Uz, Initial residual = 0.00412758001819, Final residual = 6.77532714867e-18, No Iterations 15
smoothSolver:  Solving for T, Initial residual = 1.31768467698e-09, Final residual = 1.18517599257e-13, No Iterations 15
min/max(T) = 373, 378.024799628
DICPCG:  Solving for p_rgh, Initial residual = 0.0782371612185, Final residual = 7.66024337747e-05, No Iterations 737
DICPCG:  Solving for p_rgh, Initial residual = 0.000272735646517, Final residual = 2.72148543882e-07, No Iterations 764
DICPCG:  Solving for p_rgh, Initial residual = 4.38335557069e-05, Final residual = 4.3278300145e-08, No Iterations 775
DICPCG:  Solving for p_rgh, Initial residual = 1.46797910625e-05, Final residual = 9.76714297216e-10, No Iterations 804
ExecutionTime = 8.1 s  ClockTime = 8 s

Courant Number mean: 8.65123949358e-09 max: 0.0255484985939
Interface Courant Number mean: 1.17635666317e-11 max: 0.000839095533983
deltaT = 6.39689233247e-12
Time = 1.250273096e-06

PIMPLE: iteration 1
DICPCG:  Solving for mDotSmear, Initial residual = 0.99999999998, Final residual = 7.93777588757e-07, No Iterations 49
MULES: Solving for alpha.liquid
MULES: Solving for alpha.liquid
Liquid phase volume fraction = 0.999000063599  Min(alpha.liquid) = -1.53728107357e-22  Max(alpha.liquid) = 1
MULES: Solving for alpha.liquid
MULES: Solving for alpha.liquid
Liquid phase volume fraction = 0.999000063562  Min(alpha.liquid) = -1.11004537589e-22  Max(alpha.liquid) = 1
smoothSolver:  Solving for Ux, Initial residual = 0.0533857842245, Final residual = 1.33261316951e-17, No Iterations 15
smoothSolver:  Solving for Uy, Initial residual = 0.0307521705511, Final residual = 7.60836434584e-18, No Iterations 15
smoothSolver:  Solving for Uz, Initial residual = 0.0187317986422, Final residual = 7.40985699784e-18, No Iterations 15
smoothSolver:  Solving for T, Initial residual = 5.48611743372e-10, Final residual = 1.17348954032e-13, No Iterations 15
min/max(T) = 373, 378.024799621
DICPCG:  Solving for p_rgh, Initial residual = 0.0422405529618, Final residual = 4.05967171185e-05, No Iterations 783
DICPCG:  Solving for p_rgh, Initial residual = 9.90503409664e-05, Final residual = 9.0866107033e-08, No Iterations 696
DICPCG:  Solving for p_rgh, Initial residual = 8.55479274606e-06, Final residual = 7.89556631239e-09, No Iterations 777
DICPCG:  Solving for p_rgh, Initial residual = 1.40851680975e-06, Final residual = 9.69824930326e-10, No Iterations 724
ExecutionTime = 9.04 s  ClockTime = 9 s

Courant Number mean: 1.14089597839e-08 max: 0.0274659482046
Interface Courant Number mean: 4.64176169788e-12 max: 0.000330522317021
deltaT = 2.32902664793e-12
Time = 1.250275425e-06

PIMPLE: iteration 1
DICPCG:  Solving for mDotSmear, Initial residual = 0.999999999981, Final residual = 7.89955048304e-07, No Iterations 49
MULES: Solving for alpha.liquid
MULES: Solving for alpha.liquid
Liquid phase volume fraction = 0.999000063552  Min(alpha.liquid) = -1.01297526754e-22  Max(alpha.liquid) = 1
MULES: Solving for alpha.liquid
MULES: Solving for alpha.liquid
Liquid phase volume fraction = 0.999000063541  Min(alpha.liquid) = -1.06411478406e-22  Max(alpha.liquid) = 1
smoothSolver:  Solving for Ux, Initial residual = 0.019156784549, Final residual = 6.49264420711e-18, No Iterations 15
smoothSolver:  Solving for Uy, Initial residual = 0.0591619950574, Final residual = 1.95610059664e-17, No Iterations 15
smoothSolver:  Solving for Uz, Initial residual = 0.0419812680762, Final residual = 1.63476049258e-17, No Iterations 15
smoothSolver:  Solving for T, Initial residual = 1.58592525902e-10, Final residual = 1.22442616153e-13, No Iterations 15
min/max(T) = 373, 378.024799618
DICPCG:  Solving for p_rgh, Initial residual = 0.0384940108992, Final residual = 3.7835085655e-05, No Iterations 804
DICPCG:  Solving for p_rgh, Initial residual = 2.76981778964e-05, Final residual = 2.76821205053e-08, No Iterations 813
DICPCG:  Solving for p_rgh, Initial residual = 9.42027736828e-07, Final residual = 9.93837778122e-10, No Iterations 800
DICPCG:  Solving for p_rgh, Initial residual = 7.32478850056e-08, Final residual = 9.94575396504e-10, No Iterations 524
ExecutionTime = 9.99 s  ClockTime = 10 s

Courant Number mean: 9.13724649303e-09 max: 0.012804250378
Interface Courant Number mean: 1.60362907868e-12 max: 0.000115035013941
deltaT = 1.81894816902e-12
Time = 1.250277244e-06

PIMPLE: iteration 1
DICPCG:  Solving for mDotSmear, Initial residual = 0.999999999981, Final residual = 7.87837735098e-07, No Iterations 49
MULES: Solving for alpha.liquid
MULES: Solving for alpha.liquid
Liquid phase volume fraction = 0.999000063526  Min(alpha.liquid) = -1.59582521568e-22  Max(alpha.liquid) = 1
MULES: Solving for alpha.liquid
MULES: Solving for alpha.liquid
Liquid phase volume fraction = 0.99900006351  Min(alpha.liquid) = -2.12741561231e-22  Max(alpha.liquid) = 1
smoothSolver:  Solving for Ux, Initial residual = 0.0812159969168, Final residual = 1.50124974177e-17, No Iterations 15
smoothSolver:  Solving for Uy, Initial residual = 0.173178400118, Final residual = 3.14103580852e-17, No Iterations 15
smoothSolver:  Solving for Uz, Initial residual = 0.304705706139, Final residual = 5.65091370262e-17, No Iterations 15
smoothSolver:  Solving for T, Initial residual = 2.25123462143e-10, Final residual = 1.17151212838e-13, No Iterations 15
min/max(T) = 373, 378.024799617
DICPCG:  Solving for p_rgh, Initial residual = 0.0186712036322, Final residual = 1.81031945563e-05, No Iterations 808
DICPCG:  Solving for p_rgh, Initial residual = 2.09377728651e-05, Final residual = 2.08501475946e-08, No Iterations 800
DICPCG:  Solving for p_rgh, Initial residual = 5.08066968428e-07, Final residual = 9.6968044344e-10, No Iterations 770
DICPCG:  Solving for p_rgh, Initial residual = 3.23680044147e-08, Final residual = 9.40040365927e-10, No Iterations 575
ExecutionTime = 10.92 s  ClockTime = 11 s

Courant Number mean: 1.81666129953e-08 max: 0.020462995697
Interface Courant Number mean: 1.52878969666e-12 max: 9.8936374119e-05
deltaT = 8.88896302888e-13
Time = 1.250278132e-06

PIMPLE: iteration 1
DICPCG:  Solving for mDotSmear, Initial residual = 0.999999999981, Final residual = 7.87941476105e-07, No Iterations 49
MULES: Solving for alpha.liquid
MULES: Solving for alpha.liquid
Liquid phase volume fraction = 0.999000063511  Min(alpha.liquid) = -3.19078974716e-22  Max(alpha.liquid) = 1
MULES: Solving for alpha.liquid
MULES: Solving for alpha.liquid
Liquid phase volume fraction = 0.999000063512  Min(alpha.liquid) = -4.2540542053e-22  Max(alpha.liquid) = 1
smoothSolver:  Solving for Ux, Initial residual = 0.0570547446441, Final residual = 1.320535051e-17, No Iterations 15
smoothSolver:  Solving for Uy, Initial residual = 0.161966013019, Final residual = 3.72991222776e-17, No Iterations 15
smoothSolver:  Solving for Uz, Initial residual = 0.201595603249, Final residual = 4.77148531608e-17, No Iterations 15
smoothSolver:  Solving for T, Initial residual = 6.4224284398e-11, Final residual = 1.16397537578e-13, No Iterations 15
min/max(T) = 373, 378.024799615
DICPCG:  Solving for p_rgh, Initial residual = 0.0267859816745, Final residual = 2.62848610727e-05, No Iterations 806
DICPCG:  Solving for p_rgh, Initial residual = 1.17460566541e-05, Final residual = 1.13046881823e-08, No Iterations 819
DICPCG:  Solving for p_rgh, Initial residual = 1.01316033517e-07, Final residual = 9.68160651043e-10, No Iterations 723
DICPCG:  Solving for p_rgh, Initial residual = 4.31824935505e-09, Final residual = 4.45486462823e-10, No Iterations 10
ExecutionTime = 11.73 s  ClockTime = 12 s

Courant Number mean: 1.60574435412e-08 max: 0.0113210965929
Interface Courant Number mean: 6.08761406711e-13 max: 4.00746765044e-05
deltaT = 7.85168042297e-13
Time = 1.250278918e-06

PIMPLE: iteration 1
DICPCG:  Solving for mDotSmear, Initial residual = 0.999999999982, Final residual = 8.43982932409e-07, No Iterations 49
MULES: Solving for alpha.liquid
MULES: Solving for alpha.liquid
Liquid phase volume fraction = 0.999000063498  Min(alpha.liquid) = -6.38052429004e-22  Max(alpha.liquid) = 1
MULES: Solving for alpha.liquid
MULES: Solving for alpha.liquid
Liquid phase volume fraction = 0.999000063485  Min(alpha.liquid) = -8.50679780999e-22  Max(alpha.liquid) = 1
smoothSolver:  Solving for Ux, Initial residual = 0.143083119559, Final residual = 2.38191369889e-17, No Iterations 15
smoothSolver:  Solving for Uy, Initial residual = 0.313316288547, Final residual = 5.06728232499e-17, No Iterations 15
smoothSolver:  Solving for Uz, Initial residual = 0.401561650248, Final residual = 6.56469378032e-17, No Iterations 15
smoothSolver:  Solving for T, Initial residual = 1.98713877932e-10, Final residual = 1.17631318641e-13, No Iterations 15
min/max(T) = 373, 378.024799614
DICPCG:  Solving for p_rgh, Initial residual = 0.0169118102447, Final residual = 1.61518621888e-05, No Iterations 806
DICPCG:  Solving for p_rgh, Initial residual = 1.27614285499e-05, Final residual = 1.27460815457e-08, No Iterations 818
DICPCG:  Solving for p_rgh, Initial residual = 8.61184025403e-08, Final residual = 9.67625975706e-10, No Iterations 718
DICPCG:  Solving for p_rgh, Initial residual = 3.33288824187e-09, Final residual = 7.46037976623e-10, No Iterations 10
ExecutionTime = 12.53 s  ClockTime = 13 s

Courant Number mean: 2.44963975989e-08 max: 0.0181692522439
Interface Courant Number mean: 7.38729822012e-13 max: 4.79930279429e-05
deltaT = 4.32141095372e-13
Time = 1.25027935e-06

PIMPLE: iteration 1
DICPCG:  Solving for mDotSmear, Initial residual = 0.999999999981, Final residual = 8.48931793401e-07, No Iterations 49
MULES: Solving for alpha.liquid
MULES: Solving for alpha.liquid
Liquid phase volume fraction = 0.999000063491  Min(alpha.liquid) = -1.27595355841e-21  Max(alpha.liquid) = 1
MULES: Solving for alpha.liquid
MULES: Solving for alpha.liquid
Liquid phase volume fraction = 0.999000063497  Min(alpha.liquid) = -1.70120486356e-21  Max(alpha.liquid) = 1
smoothSolver:  Solving for Ux, Initial residual = 0.0928275911349, Final residual = 1.88423345352e-17, No Iterations 15
smoothSolver:  Solving for Uy, Initial residual = 0.238314429674, Final residual = 4.77692138062e-17, No Iterations 15
smoothSolver:  Solving for Uz, Initial residual = 0.286092121471, Final residual = 5.81063634089e-17, No Iterations 15
smoothSolver:  Solving for T, Initial residual = 1.16426016237e-10, Final residual = 1.16920787444e-13, No Iterations 15
min/max(T) = 373, 378.024799614
DICPCG:  Solving for p_rgh, Initial residual = 0.0236233822188, Final residual = 2.29096725951e-05, No Iterations 804
DICPCG:  Solving for p_rgh, Initial residual = 1.00828387198e-05, Final residual = 9.93411537515e-09, No Iterations 827
DICPCG:  Solving for p_rgh, Initial residual = 2.83037505145e-08, Final residual = 9.8452754703e-10, No Iterations 690
DICPCG:  Solving for p_rgh, Initial residual = 1.3509723741e-09, Final residual = 4.20078008591e-10, No Iterations 10
ExecutionTime = 13.3 s  ClockTime = 14 s

Courant Number mean: 2.07825518835e-08 max: 0.010860207786
Interface Courant Number mean: 2.32681391247e-13 max: 1.59427327695e-05
deltaT = 3.97912355537e-13
Time = 1.250279748e-06

PIMPLE: iteration 1
DICPCG:  Solving for mDotSmear, Initial residual = 0.999999999982, Final residual = 8.40316795395e-07, No Iterations 49
MULES: Solving for alpha.liquid
MULES: Solving for alpha.liquid
Liquid phase volume fraction = 0.999000063483  Min(alpha.liquid) = -2.55170106399e-21  Max(alpha.liquid) = 1
MULES: Solving for alpha.liquid
MULES: Solving for alpha.liquid
Liquid phase volume fraction = 0.999000063468  Min(alpha.liquid) = -3.40216252451e-21  Max(alpha.liquid) = 1
smoothSolver:  Solving for Ux, Initial residual = 0.183398308549, Final residual = 2.83740799947e-17, No Iterations 15
smoothSolver:  Solving for Uy, Initial residual = 0.370366332988, Final residual = 5.74393366227e-17, No Iterations 15
smoothSolver:  Solving for Uz, Initial residual = 0.427807135141, Final residual = 6.64080273423e-17, No Iterations 15
smoothSolver:  Solving for T, Initial residual = 2.10101307359e-10, Final residual = 1.17283575207e-13, No Iterations 15
min/max(T) = 373, 378.024799613
DICPCG:  Solving for p_rgh, Initial residual = 0.0166159220651, Final residual = 1.62574016653e-05, No Iterations 803
DICPCG:  Solving for p_rgh, Initial residual = 1.17670413902e-05, Final residual = 1.08692244645e-08, No Iterations 830
DICPCG:  Solving for p_rgh, Initial residual = 2.84716910338e-08, Final residual = 9.93453507681e-10, No Iterations 693
DICPCG:  Solving for p_rgh, Initial residual = 1.27972027322e-09, Final residual = 4.17069291478e-10, No Iterations 10
ExecutionTime = 14.09 s  ClockTime = 14 s

Courant Number mean: 2.88379710835e-08 max: 0.0171517690634
Interface Courant Number mean: 4.50718832457e-13 max: 2.937471739e-05
deltaT = 2.31994933925e-13
Time = 1.25027998e-06

PIMPLE: iteration 1
DICPCG:  Solving for mDotSmear, Initial residual = 0.999999999982, Final residual = 8.43935758204e-07, No Iterations 49
MULES: Solving for alpha.liquid
MULES: Solving for alpha.liquid
Liquid phase volume fraction = 0.999000063477  Min(alpha.liquid) = -5.10309998801e-21  Max(alpha.liquid) = 1
MULES: Solving for alpha.liquid
MULES: Solving for alpha.liquid
Liquid phase volume fraction = 0.999000063486  Min(alpha.liquid) = -6.8039892961e-21  Max(alpha.liquid) = 1
smoothSolver:  Solving for Ux, Initial residual = 0.115596262275, Final residual = 2.16455622321e-17, No Iterations 15
smoothSolver:  Solving for Uy, Initial residual = 0.276509165247, Final residual = 5.20460035586e-17, No Iterations 15
smoothSolver:  Solving for Uz, Initial residual = 0.318092342917, Final residual = 6.058439901e-17, No Iterations 15
smoothSolver:  Solving for T, Initial residual = 1.53558788841e-10, Final residual = 1.17439633389e-13, No Iterations 15
min/max(T) = 373, 378.024799612
DICPCG:  Solving for p_rgh, Initial residual = 0.0225374784573, Final residual = 2.22621305176e-05, No Iterations 802
DICPCG:  Solving for p_rgh, Initial residual = 1.00966438266e-05, Final residual = 1.00151462425e-08, No Iterations 830
DICPCG:  Solving for p_rgh, Initial residual = 1.5225636233e-08, Final residual = 9.94056134745e-10, No Iterations 679
DICPCG:  Solving for p_rgh, Initial residual = 1.04273060289e-09, Final residual = 5.76112958618e-10, No Iterations 10
ExecutionTime = 14.86 s  ClockTime = 15 s

Courant Number mean: 2.39883301008e-08 max: 0.0106417135419
Interface Courant Number mean: 7.13160671168e-14 max: 5.19233335801e-06
deltaT = 2.18005243513e-13
Time = 1.250280198e-06

PIMPLE: iteration 1
DICPCG:  Solving for mDotSmear, Initial residual = 0.999999999982, Final residual = 8.38652458408e-07, No Iterations 49
MULES: Solving for alpha.liquid
MULES: Solving for alpha.liquid
Liquid phase volume fraction = 0.999000063471  Min(alpha.liquid) = -1.02058025393e-20  Max(alpha.liquid) = 1
MULES: Solving for alpha.liquid
MULES: Solving for alpha.liquid
Liquid phase volume fraction = 0.999000063456  Min(alpha.liquid) = -1.36075553558e-20  Max(alpha.liquid) = 1
smoothSolver:  Solving for Ux, Initial residual = 0.207864922625, Final residual = 3.13967983883e-17, No Iterations 15
smoothSolver:  Solving for Uy, Initial residual = 0.396852795604, Final residual = 5.96849440884e-17, No Iterations 15
smoothSolver:  Solving for Uz, Initial residual = 0.441114576453, Final residual = 6.70743739044e-17, No Iterations 15
smoothSolver:  Solving for T, Initial residual = 2.25048281875e-10, Final residual = 1.17028012219e-13, No Iterations 15
min/max(T) = 373, 378.024799612
DICPCG:  Solving for p_rgh, Initial residual = 0.0165181595862, Final residual = 1.6161843106e-05, No Iterations 802
DICPCG:  Solving for p_rgh, Initial residual = 1.16688413366e-05, Final residual = 1.14756594977e-08, No Iterations 829
DICPCG:  Solving for p_rgh, Initial residual = 1.67534344795e-08, Final residual = 9.92107772948e-10, No Iterations 702
DICPCG:  Solving for p_rgh, Initial residual = 1.03132045272e-09, Final residual = 6.18804646052e-10, No Iterations 10
ExecutionTime = 15.63 s  ClockTime = 16 s

Courant Number mean: 3.16795628077e-08 max: 0.0167412137352
Interface Courant Number mean: 3.30231531768e-13 max: 2.31292029051e-05
deltaT = 1.30220691288e-13
Time = 1.250280328e-06

PIMPLE: iteration 1
DICPCG:  Solving for mDotSmear, Initial residual = 0.999999999982, Final residual = 8.40769365706e-07, No Iterations 49
MULES: Solving for alpha.liquid
MULES: Solving for alpha.liquid
Liquid phase volume fraction = 0.999000063467  Min(alpha.liquid) = -2.04110905977e-20  Max(alpha.liquid) = 1
MULES: Solving for alpha.liquid
MULES: Solving for alpha.liquid
Liquid phase volume fraction = 0.999000063477  Min(alpha.liquid) = -2.72145450098e-20  Max(alpha.liquid) = 1
smoothSolver:  Solving for Ux, Initial residual = 0.129302207049, Final residual = 2.36102762225e-17, No Iterations 15
smoothSolver:  Solving for Uy, Initial residual = 0.295692433857, Final residual = 5.45035374873e-17, No Iterations 15
smoothSolver:  Solving for Uz, Initial residual = 0.332323430657, Final residual = 6.14820636886e-17, No Iterations 15
smoothSolver:  Solving for T, Initial residual = 1.75529099008e-10, Final residual = 1.1871216606e-13, No Iterations 15
min/max(T) = 373, 378.024799611
DICPCG:  Solving for p_rgh, Initial residual = 0.0221213822193, Final residual = 2.12786037197e-05, No Iterations 802
DICPCG:  Solving for p_rgh, Initial residual = 1.00004780798e-05, Final residual = 9.2633655509e-09, No Iterations 812
DICPCG:  Solving for p_rgh, Initial residual = 1.09347245842e-08, Final residual = 9.90600860473e-10, No Iterations 694
DICPCG:  Solving for p_rgh, Initial residual = 9.98321688136e-10, Final residual = 7.20141134461e-10, No Iterations 10
ExecutionTime = 16.41 s  ClockTime = 17 s

Courant Number mean: 2.58024270963e-08 max: 0.0104418402547
Interface Courant Number mean: 2.72801221143e-14 max: 6.70307878647e-06
deltaT = 1.2471047958e-13
Time = 1.250280453e-06

PIMPLE: iteration 1
DICPCG:  Solving for mDotSmear, Initial residual = 0.999999999982, Final residual = 8.38244703592e-07, No Iterations 49
MULES: Solving for alpha.liquid
MULES: Solving for alpha.liquid
Liquid phase volume fraction = 0.999000063462  Min(alpha.liquid) = -4.08219544546e-20  Max(alpha.liquid) = 1
MULES: Solving for alpha.liquid
MULES: Solving for alpha.liquid
Liquid phase volume fraction = 0.999000063447  Min(alpha.liquid) = -5.4429409561e-20  Max(alpha.liquid) = 1
smoothSolver:  Solving for Ux, Initial residual = 0.225325303619, Final residual = 3.36002651003e-17, No Iterations 15
smoothSolver:  Solving for Uy, Initial residual = 0.412597354566, Final residual = 6.16537928979e-17, No Iterations 15
smoothSolver:  Solving for Uz, Initial residual = 0.450968479485, Final residual = 6.78636720804e-17, No Iterations 15
smoothSolver:  Solving for T, Initial residual = 2.35441126292e-10, Final residual = 1.18500982815e-13, No Iterations 15
min/max(T) = 373, 378.024799611
DICPCG:  Solving for p_rgh, Initial residual = 0.0164095155798, Final residual = 1.62993734358e-05, No Iterations 801
DICPCG:  Solving for p_rgh, Initial residual = 1.20559307109e-05, Final residual = 1.15421591038e-08, No Iterations 830
DICPCG:  Solving for p_rgh, Initial residual = 1.34441867561e-08, Final residual = 9.75098745644e-10, No Iterations 700
DICPCG:  Solving for p_rgh, Initial residual = 9.79199906076e-10, Final residual = 6.91401240471e-10, No Iterations 10
ExecutionTime = 17.17 s  ClockTime = 18 s

Courant Number mean: 3.33991821203e-08 max: 0.0166795850459
Interface Courant Number mean: 2.62324439729e-13 max: 2.0593262984e-05
deltaT = 7.47683344037e-14
Time = 1.250280527e-06

PIMPLE: iteration 1
DICPCG:  Solving for mDotSmear, Initial residual = 0.999999999982, Final residual = 8.39111757636e-07, No Iterations 49
MULES: Solving for alpha.liquid
MULES: Solving for alpha.liquid
Liquid phase volume fraction = 0.999000063458  Min(alpha.liquid) = -8.16453063304e-20  Max(alpha.liquid) = 1
MULES: Solving for alpha.liquid
MULES: Solving for alpha.liquid
Liquid phase volume fraction = 0.999000063469  Min(alpha.liquid) = -1.08861600502e-19  Max(alpha.liquid) = 1
smoothSolver:  Solving for Ux, Initial residual = 0.136231457234, Final residual = 2.54638462651e-17, No Iterations 15
smoothSolver:  Solving for Uy, Initial residual = 0.303858041381, Final residual = 5.55016187201e-17, No Iterations 15
smoothSolver:  Solving for Uz, Initial residual = 0.337731954538, Final residual = 6.26551640803e-17, No Iterations 15
smoothSolver:  Solving for T, Initial residual = 1.86426439819e-10, Final residual = 1.21572162046e-13, No Iterations 15
min/max(T) = 373, 378.02479961
DICPCG:  Solving for p_rgh, Initial residual = 0.0220672719563, Final residual = 2.19524126657e-05, No Iterations 801
DICPCG:  Solving for p_rgh, Initial residual = 1.04540782125e-05, Final residual = 1.02760542411e-08, No Iterations 829
DICPCG:  Solving for p_rgh, Initial residual = 1.08203562867e-08, Final residual = 9.71221120508e-10, No Iterations 689
DICPCG:  Solving for p_rgh, Initial residual = 9.72482431381e-10, Final residual = 6.70182915855e-10, No Iterations 10
ExecutionTime = 17.93 s  ClockTime = 18 s

Courant Number mean: 2.66442652462e-08 max: 0.0101962657768
Interface Courant Number mean: 7.19263795151e-14 max: 9.99045493198e-06
deltaT = 7.33291347434e-14
Time = 1.250280601e-06

PIMPLE: iteration 1
DICPCG:  Solving for mDotSmear, Initial residual = 0.999999999982, Final residual = 8.38217289035e-07, No Iterations 49
MULES: Solving for alpha.liquid
MULES: Solving for alpha.liquid
Liquid phase volume fraction = 0.999000063453  Min(alpha.liquid) = -1.63300594722e-19  Max(alpha.liquid) = 1
MULES: Solving for alpha.liquid
MULES: Solving for alpha.liquid
Liquid phase volume fraction = 0.999000063438  Min(alpha.liquid) = -2.17742321322e-19  Max(alpha.liquid) = 1
smoothSolver:  Solving for Ux, Initial residual = 0.238862947238, Final residual = 3.64357191246e-17, No Iterations 15
smoothSolver:  Solving for Uy, Initial residual = 0.424137646111, Final residual = 6.26122800449e-17, No Iterations 15
smoothSolver:  Solving for Uz, Initial residual = 0.459777510094, Final residual = 6.83127174885e-17, No Iterations 15
smoothSolver:  Solving for T, Initial residual = 2.43020032751e-10, Final residual = 1.21514902513e-13, No Iterations 15
min/max(T) = 373, 378.02479961
DICPCG:  Solving for p_rgh, Initial residual = 0.0162417058434, Final residual = 1.61408555013e-05, No Iterations 801
DICPCG:  Solving for p_rgh, Initial residual = 1.23141999288e-05, Final residual = 1.21015935572e-08, No Iterations 707
DICPCG:  Solving for p_rgh, Initial residual = 1.30226695539e-08, Final residual = 9.80313502335e-10, No Iterations 163
DICPCG:  Solving for p_rgh, Initial residual = 9.81605183537e-10, Final residual = 6.24836556241e-10, No Iterations 10
ExecutionTime = 18.51 s  ClockTime = 19 s

Courant Number mean: 3.46135783931e-08 max: 0.0169084892822
Interface Courant Number mean: 2.27934789547e-13 max: 1.98809540445e-05
deltaT = 4.33682356686e-14
Time = 1.250280644e-06

PIMPLE: iteration 1
DICPCG:  Solving for mDotSmear, Initial residual = 0.999999999982, Final residual = 8.38272366881e-07, No Iterations 49
MULES: Solving for alpha.liquid
MULES: Solving for alpha.liquid
Liquid phase volume fraction = 0.999000063449  Min(alpha.liquid) = -3.2664609655e-19  Max(alpha.liquid) = 1
MULES: Solving for alpha.liquid
MULES: Solving for alpha.liquid
Liquid phase volume fraction = 0.999000063461  Min(alpha.liquid) = -4.35560751725e-19  Max(alpha.liquid) = 1
smoothSolver:  Solving for Ux, Initial residual = 0.137683295919, Final residual = 2.55130794249e-17, No Iterations 15
smoothSolver:  Solving for Uy, Initial residual = 0.304664397402, Final residual = 5.50859237185e-17, No Iterations 15
smoothSolver:  Solving for Uz, Initial residual = 0.336896378105, Final residual = 6.19672143053e-17, No Iterations 15
smoothSolver:  Solving for T, Initial residual = 1.90925725281e-10, Final residual = 1.21605767012e-13, No Iterations 15
min/max(T) = 373, 378.02479961
DICPCG:  Solving for p_rgh, Initial residual = 0.0222778074154, Final residual = 2.2122441162e-05, No Iterations 801
DICPCG:  Solving for p_rgh, Initial residual = 1.04725030452e-05, Final residual = 1.03967113574e-08, No Iterations 827
DICPCG:  Solving for p_rgh, Initial residual = 1.06801708473e-08, Final residual = 9.98923130218e-10, No Iterations 134
DICPCG:  Solving for p_rgh, Initial residual = 9.9949562493e-10, Final residual = 7.87563416949e-10, No Iterations 10
ExecutionTime = 19.15 s  ClockTime = 20 s

Courant Number mean: 2.68954330981e-08 max: 0.0098898804833
Interface Courant Number mean: 9.97441825917e-14 max: 1.19361510057e-05
deltaT = 4.38511220183e-14
Time = 1.250280688e-06

PIMPLE: iteration 1
DICPCG:  Solving for mDotSmear, Initial residual = 0.999999999982, Final residual = 8.38189322725e-07, No Iterations 49
MULES: Solving for alpha.liquid
MULES: Solving for alpha.liquid
Liquid phase volume fraction = 0.999000063445  Min(alpha.liquid) = -6.53481767298e-19  Max(alpha.liquid) = 1
MULES: Solving for alpha.liquid
MULES: Solving for alpha.liquid
Liquid phase volume fraction = 0.999000063429  Min(alpha.liquid) = -8.71449734414e-19  Max(alpha.liquid) = 1
smoothSolver:  Solving for Ux, Initial residual = 0.251224000469, Final residual = 3.64270879466e-17, No Iterations 15
smoothSolver:  Solving for Uy, Initial residual = 0.434717167514, Final residual = 6.32437460115e-17, No Iterations 15
smoothSolver:  Solving for Uz, Initial residual = 0.46900855007, Final residual = 6.88114654246e-17, No Iterations 15
smoothSolver:  Solving for T, Initial residual = 2.49588718727e-10, Final residual = 1.20586027603e-13, No Iterations 15
min/max(T) = 373, 378.02479961
DICPCG:  Solving for p_rgh, Initial residual = 0.015998195604, Final residual = 1.58651525226e-05, No Iterations 801
DICPCG:  Solving for p_rgh, Initial residual = 1.25266488432e-05, Final residual = 1.25069021736e-08, No Iterations 826
DICPCG:  Solving for p_rgh, Initial residual = 1.323527932e-08, Final residual = 9.95070842084e-10, No Iterations 156
DICPCG:  Solving for p_rgh, Initial residual = 9.94989008532e-10, Final residual = 6.35129518274e-10, No Iterations 10
ExecutionTime = 19.77 s  ClockTime = 20 s

Courant Number mean: 3.56575903373e-08 max: 0.0173736964252
Interface Courant Number mean: 2.1348352213e-13 max: 2.00235418163e-05
deltaT = 2.52399495092e-14
Time = 1.250280713e-06

PIMPLE: iteration 1
DICPCG:  Solving for mDotSmear, Initial residual = 0.999999999982, Final residual = 8.38153506892e-07, No Iterations 49
MULES: Solving for alpha.liquid
MULES: Solving for alpha.liquid
Liquid phase volume fraction = 0.999000063441  Min(alpha.liquid) = -1.30773581429e-18  Max(alpha.liquid) = 1
MULES: Solving for alpha.liquid
MULES: Solving for alpha.liquid
Liquid phase volume fraction = 0.999000063452  Min(alpha.liquid) = -1.74420953841e-18  Max(alpha.liquid) = 1
smoothSolver:  Solving for Ux, Initial residual = 0.135464446434, Final residual = 2.51632439229e-17, No Iterations 15
smoothSolver:  Solving for Uy, Initial residual = 0.300755942781, Final residual = 5.53353967122e-17, No Iterations 15
smoothSolver:  Solving for Uz, Initial residual = 0.331802964363, Final residual = 6.18809970097e-17, No Iterations 15
smoothSolver:  Solving for T, Initial residual = 1.91708575781e-10, Final residual = 1.17103268364e-13, No Iterations 15
min/max(T) = 373, 378.024799609
DICPCG:  Solving for p_rgh, Initial residual = 0.0226949236681, Final residual = 2.25106487881e-05, No Iterations 801
DICPCG:  Solving for p_rgh, Initial residual = 1.04129698273e-05, Final residual = 1.02338275539e-08, No Iterations 827
DICPCG:  Solving for p_rgh, Initial residual = 1.03936157781e-08, Final residual = 9.99790015369e-10, No Iterations 124
DICPCG:  Solving for p_rgh, Initial residual = 9.99910201803e-10, Final residual = 7.1217429587e-10, No Iterations 10
ExecutionTime = 20.39 s  ClockTime = 21 s

Courant Number mean: 2.6784827949e-08 max: 0.0095026454844
Interface Courant Number mean: 1.1513182751e-13 max: 1.28231510843e-05
deltaT = 2.65609713934e-14
Time = 1.25028074e-06

PIMPLE: iteration 1
DICPCG:  Solving for mDotSmear, Initial residual = 0.999999999982, Final residual = 8.38160629151e-07, No Iterations 49
MULES: Solving for alpha.liquid
MULES: Solving for alpha.liquid
Liquid phase volume fraction = 0.999000063436  Min(alpha.liquid) = -2.61859355889e-18  Max(alpha.liquid) = 1
MULES: Solving for alpha.liquid
MULES: Solving for alpha.liquid
Liquid phase volume fraction = 0.999000063419  Min(alpha.liquid) = -3.49374199351e-18  Max(alpha.liquid) = 1
smoothSolver:  Solving for Ux, Initial residual = 0.264928103711, Final residual = 3.8919591411e-17, No Iterations 15
smoothSolver:  Solving for Uy, Initial residual = 0.446417807764, Final residual = 6.38920325927e-17, No Iterations 15
smoothSolver:  Solving for Uz, Initial residual = 0.479971106888, Final residual = 6.96930806103e-17, No Iterations 15
smoothSolver:  Solving for T, Initial residual = 2.56765987813e-10, Final residual = 1.16275121264e-13, No Iterations 15
min/max(T) = 373, 378.024799609
DICPCG:  Solving for p_rgh, Initial residual = 0.0156672067907, Final residual = 1.55733351013e-05, No Iterations 801
DICPCG:  Solving for p_rgh, Initial residual = 1.28191209124e-05, Final residual = 1.26354562788e-08, No Iterations 826
DICPCG:  Solving for p_rgh, Initial residual = 1.32839191132e-08, Final residual = 9.75730468942e-10, No Iterations 160
DICPCG:  Solving for p_rgh, Initial residual = 9.75879726365e-10, Final residual = 6.24871216266e-10, No Iterations 10
ExecutionTime = 21.01 s  ClockTime = 21 s

Courant Number mean: 3.67502806605e-08 max: 0.0180961323461
Interface Courant Number mean: 2.05954940866e-13 max: 1.98946695536e-05
deltaT = 1.46777061906e-14
Time = 1.250280754e-06

PIMPLE: iteration 1
DICPCG:  Solving for mDotSmear, Initial residual = 0.999999999982, Final residual = 8.38120694846e-07, No Iterations 49
MULES: Solving for alpha.liquid
MULES: Solving for alpha.liquid
Liquid phase volume fraction = 0.999000063431  Min(alpha.liquid) = -5.24978599614e-18  Max(alpha.liquid) = 1
MULES: Solving for alpha.liquid
MULES: Solving for alpha.liquid
Liquid phase volume fraction = 0.999000063443  Min(alpha.liquid) = -7.00892545048e-18  Max(alpha.liquid) = 1
smoothSolver:  Solving for Ux, Initial residual = 0.13059119934, Final residual = 2.47582174522e-17, No Iterations 15
smoothSolver:  Solving for Uy, Initial residual = 0.293175001434, Final residual = 5.43957479693e-17, No Iterations 15
smoothSolver:  Solving for Uz, Initial residual = 0.323108393069, Final residual = 6.13478796471e-17, No Iterations 15
smoothSolver:  Solving for T, Initial residual = 1.89883385816e-10, Final residual = 1.17388255565e-13, No Iterations 15
min/max(T) = 373, 378.024799608
DICPCG:  Solving for p_rgh, Initial residual = 0.0233350798979, Final residual = 2.32025660226e-05, No Iterations 801
DICPCG:  Solving for p_rgh, Initial residual = 1.03273715344e-05, Final residual = 1.00197075612e-08, No Iterations 827
DICPCG:  Solving for p_rgh, Initial residual = 1.01726061448e-08, Final residual = 9.98810077122e-10, No Iterations 122
DICPCG:  Solving for p_rgh, Initial residual = 9.99179743477e-10, Final residual = 7.13646824006e-10, No Iterations 10
ExecutionTime = 21.63 s  ClockTime = 22 s

Courant Number mean: 2.63976144281e-08 max: 0.00900906802373
Interface Courant Number mean: 1.21585759223e-13 max: 1.30149650631e-05
deltaT = 1.62921471481e-14
Time = 1.250280771e-06

PIMPLE: iteration 1
DICPCG:  Solving for mDotSmear, Initial residual = 0.999999999982, Final residual = 8.3813086478e-07, No Iterations 49
MULES: Solving for alpha.liquid
MULES: Solving for alpha.liquid
Liquid phase volume fraction = 0.999000063426  Min(alpha.liquid) = -1.05505748119e-17  Max(alpha.liquid) = 1
MULES: Solving for alpha.liquid
MULES: Solving for alpha.liquid
Liquid phase volume fraction = 0.999000063408  Min(alpha.liquid) = -1.41049300604e-17  Max(alpha.liquid) = 1
smoothSolver:  Solving for Ux, Initial residual = 0.282509056984, Final residual = 3.94854421896e-17, No Iterations 15
smoothSolver:  Solving for Uy, Initial residual = 0.46089803123, Final residual = 6.37494872559e-17, No Iterations 15
smoothSolver:  Solving for Uz, Initial residual = 0.494039021769, Final residual = 7.00852419462e-17, No Iterations 15
smoothSolver:  Solving for T, Initial residual = 2.65728478518e-10, Final residual = 1.19116096379e-13, No Iterations 15
min/max(T) = 373, 378.024799608
DICPCG:  Solving for p_rgh, Initial residual = 0.0152332401331, Final residual = 1.51743168322e-05, No Iterations 801
DICPCG:  Solving for p_rgh, Initial residual = 1.32167413268e-05, Final residual = 1.29160400672e-08, No Iterations 826
DICPCG:  Solving for p_rgh, Initial residual = 1.35459523911e-08, Final residual = 9.5810190016e-10, No Iterations 163
DICPCG:  Solving for p_rgh, Initial residual = 9.58718486606e-10, Final residual = 6.40485500049e-10, No Iterations 10
ExecutionTime = 22.26 s  ClockTime = 23 s

Courant Number mean: 3.80508253667e-08 max: 0.0191563543867
Interface Courant Number mean: 2.04094071238e-13 max: 2.016556384e-05
deltaT = 8.50482655868e-15
Time = 1.250280779e-06

PIMPLE: iteration 1
DICPCG:  Solving for mDotSmear, Initial residual = 0.999999999982, Final residual = 8.38089421584e-07, No Iterations 49
MULES: Solving for alpha.liquid
MULES: Solving for alpha.liquid
Liquid phase volume fraction = 0.99900006342  Min(alpha.liquid) = -2.13097243039e-17  Max(alpha.liquid) = 1
MULES: Solving for alpha.liquid
MULES: Solving for alpha.liquid
Liquid phase volume fraction = 0.999000063431  Min(alpha.liquid) = -2.85679069197e-17  Max(alpha.liquid) = 1
smoothSolver:  Solving for Ux, Initial residual = 0.123615628257, Final residual = 2.38675689956e-17, No Iterations 15
smoothSolver:  Solving for Uy, Initial residual = 0.282278543842, Final residual = 5.47875601753e-17, No Iterations 15
smoothSolver:  Solving for Uz, Initial residual = 0.310489765902, Final residual = 6.0746977814e-17, No Iterations 15
smoothSolver:  Solving for T, Initial residual = 1.8575380074e-10, Final residual = 1.19889462071e-13, No Iterations 15
min/max(T) = 373, 378.024799608
DICPCG:  Solving for p_rgh, Initial residual = 0.0242668127226, Final residual = 2.42283092177e-05, No Iterations 801
DICPCG:  Solving for p_rgh, Initial residual = 1.02127029875e-05, Final residual = 9.93686534753e-09, No Iterations 827
DICPCG:  Solving for p_rgh, Initial residual = 1.00826614514e-08, Final residual = 9.73785837649e-10, No Iterations 124
DICPCG:  Solving for p_rgh, Initial residual = 9.7390153432e-10, Final residual = 6.82186549361e-10, No Iterations 10
ExecutionTime = 22.88 s  ClockTime = 23 s

Courant Number mean: 2.57032666529e-08 max: 0.00816869920259
Interface Courant Number mean: 1.22558704176e-13 max: 1.28800925063e-05
deltaT = 9.54597476952e-15
Time = 1.250280789e-06

PIMPLE: iteration 1
DICPCG:  Solving for mDotSmear, Initial residual = 0.999999999982, Final residual = 8.38099513194e-07, No Iterations 49
MULES: Solving for alpha.liquid
MULES: Solving for alpha.liquid
Liquid phase volume fraction = 0.999000063415  Min(alpha.liquid) = -4.3491128729e-17  Max(alpha.liquid) = 1
MULES: Solving for alpha.liquid
MULES: Solving for alpha.liquid
Liquid phase volume fraction = 0.999000063398  Min(alpha.liquid) = -5.86506323265e-17  Max(alpha.liquid) = 1
smoothSolver:  Solving for Ux, Initial residual = 0.288177020683, Final residual = 4.11585916462e-17, No Iterations 15
smoothSolver:  Solving for Uy, Initial residual = 0.464960163256, Final residual = 6.53893416198e-17, No Iterations 15
smoothSolver:  Solving for Uz, Initial residual = 0.497756058972, Final residual = 7.0518703132e-17, No Iterations 15
smoothSolver:  Solving for T, Initial residual = 2.60630363516e-10, Final residual = 1.21814356726e-13, No Iterations 15
min/max(T) = 373, 378.024799608
DICPCG:  Solving for p_rgh, Initial residual = 0.0151490959509, Final residual = 1.45506131801e-05, No Iterations 802
DICPCG:  Solving for p_rgh, Initial residual = 1.2867324731e-05, Final residual = 1.24463475513e-08, No Iterations 826
DICPCG:  Solving for p_rgh, Initial residual = 1.30835757816e-08, Final residual = 9.70502975057e-10, No Iterations 160
DICPCG:  Solving for p_rgh, Initial residual = 9.70779239403e-10, Final residual = 6.16484085932e-10, No Iterations 10
ExecutionTime = 23.51 s  ClockTime = 24 s

Courant Number mean: 3.72032801553e-08 max: 0.0194102185357
Interface Courant Number mean: 1.93994599523e-13 max: 1.94543067697e-05
deltaT = 4.91801509238e-15
Time = 1.250280794e-06

PIMPLE: iteration 1
DICPCG:  Solving for mDotSmear, Initial residual = 0.999999999982, Final residual = 8.38058722319e-07, No Iterations 49
MULES: Solving for alpha.liquid
MULES: Solving for alpha.liquid
Liquid phase volume fraction = 0.999000063409  Min(alpha.liquid) = -9.08043120725e-17  Max(alpha.liquid) = 1
MULES: Solving for alpha.liquid
MULES: Solving for alpha.liquid
Liquid phase volume fraction = 0.99900006342  Min(alpha.liquid) = -1.24132863771e-16  Max(alpha.liquid) = 1
smoothSolver:  Solving for Ux, Initial residual = 0.123332620495, Final residual = 2.46390219004e-17, No Iterations 15
smoothSolver:  Solving for Uy, Initial residual = 0.281504541001, Final residual = 5.44249788629e-17, No Iterations 15
smoothSolver:  Solving for Uz, Initial residual = 0.307015815239, Final residual = 6.04321218067e-17, No Iterations 15
smoothSolver:  Solving for T, Initial residual = 1.78779778429e-10, Final residual = 1.21927796104e-13, No Iterations 15
min/max(T) = 373, 378.024799607
DICPCG:  Solving for p_rgh, Initial residual = 0.0244736345745, Final residual = 2.34979583029e-05, No Iterations 802
DICPCG:  Solving for p_rgh, Initial residual = 9.83162607542e-06, Final residual = 9.55307634139e-09, No Iterations 827
DICPCG:  Solving for p_rgh, Initial residual = 9.69328574196e-09, Final residual = 9.8629781878e-10, No Iterations 118
DICPCG:  Solving for p_rgh, Initial residual = 9.86469711799e-10, Final residual = 7.25547822412e-10, No Iterations 10
ExecutionTime = 24.15 s  ClockTime = 25 s

Courant Number mean: 2.45577748522e-08 max: 0.00715593288005
Interface Courant Number mean: 1.19010520205e-13 max: 1.23963382066e-05
deltaT = 5.60527909847e-15
Time = 1.250280799e-06

PIMPLE: iteration 1
DICPCG:  Solving for mDotSmear, Initial residual = 0.999999999982, Final residual = 8.38068531303e-07, No Iterations 49
MULES: Solving for alpha.liquid
MULES: Solving for alpha.liquid
Liquid phase volume fraction = 0.999000063404  Min(alpha.liquid) = -2.00399057911e-16  Max(alpha.liquid) = 1
MULES: Solving for alpha.liquid
MULES: Solving for alpha.liquid
Liquid phase volume fraction = 0.999000063388  Min(alpha.liquid) = -2.84551324961e-16  Max(alpha.liquid) = 1
smoothSolver:  Solving for Ux, Initial residual = 0.297874928639, Final residual = 4.1450712079e-17, No Iterations 15
smoothSolver:  Solving for Uy, Initial residual = 0.471347736332, Final residual = 6.50591112861e-17, No Iterations 15
smoothSolver:  Solving for Uz, Initial residual = 0.503190950873, Final residual = 7.00280183516e-17, No Iterations 15
smoothSolver:  Solving for T, Initial residual = 2.5129752149e-10, Final residual = 1.19768190575e-13, No Iterations 15
min/max(T) = 373, 378.024799607
DICPCG:  Solving for p_rgh, Initial residual = 0.0150389542171, Final residual = 1.4456656485e-05, No Iterations 802
DICPCG:  Solving for p_rgh, Initial residual = 1.3087323333e-05, Final residual = 1.28714063009e-08, No Iterations 825
DICPCG:  Solving for p_rgh, Initial residual = 1.33045568904e-08, Final residual = 9.84385361036e-10, No Iterations 155
DICPCG:  Solving for p_rgh, Initial residual = 9.8477239708e-10, Final residual = 6.81130842121e-10, No Iterations 10
ExecutionTime = 24.78 s  ClockTime = 25 s

Courant Number mean: 3.56228036289e-08 max: 0.0195528110596
Interface Courant Number mean: 1.81939282612e-13 max: 1.84415929408e-05
deltaT = 2.86673823083e-15
Time = 1.250280802e-06

PIMPLE: iteration 1
DICPCG:  Solving for mDotSmear, Initial residual = 0.999999999982, Final residual = 8.38028943831e-07, No Iterations 49
MULES: Solving for alpha.liquid
MULES: Solving for alpha.liquid
Liquid phase volume fraction = 0.999000063398  Min(alpha.liquid) = -5.32773227354e-16  Max(alpha.liquid) = 1
MULES: Solving for alpha.liquid
MULES: Solving for alpha.liquid
Liquid phase volume fraction = 0.999000063408  Min(alpha.liquid) = -9.70604609091e-16  Max(alpha.liquid) = 1
smoothSolver:  Solving for Ux, Initial residual = 0.124779719512, Final residual = 2.43146630228e-17, No Iterations 15
smoothSolver:  Solving for Uy, Initial residual = 0.283061332303, Final residual = 5.5103160054e-17, No Iterations 15
smoothSolver:  Solving for Uz, Initial residual = 0.30471191475, Final residual = 5.99807796367e-17, No Iterations 15
smoothSolver:  Solving for T, Initial residual = 1.68872531534e-10, Final residual = 1.19793300254e-13, No Iterations 15
min/max(T) = 373, 378.024799606
DICPCG:  Solving for p_rgh, Initial residual = 0.0245730103538, Final residual = 2.36518934524e-05, No Iterations 802
DICPCG:  Solving for p_rgh, Initial residual = 9.93080795576e-06, Final residual = 9.87758506648e-09, No Iterations 826
DICPCG:  Solving for p_rgh, Initial residual = 1.00418891744e-08, Final residual = 9.87732666155e-10, No Iterations 119
DICPCG:  Solving for p_rgh, Initial residual = 9.8807497434e-10, Final residual = 7.33431902537e-10, No Iterations 10
ExecutionTime = 25.39 s  ClockTime = 26 s

Courant Number mean: 2.29923096186e-08 max: 0.00595742997813
Interface Courant Number mean: 1.11991708581e-13 max: 1.16252668159e-05
deltaT = 3.34794207903e-15
Time = 1.250280806e-06

PIMPLE: iteration 1
DICPCG:  Solving for mDotSmear, Initial residual = 0.999999999982, Final residual = 8.38038124952e-07, No Iterations 49
MULES: Solving for alpha.liquid
MULES: Solving for alpha.liquid
Liquid phase volume fraction = 0.999000063393  Min(alpha.liquid) = -2.10760491409e-16  Max(alpha.liquid) = 1
MULES: Solving for alpha.liquid
MULES: Solving for alpha.liquid
Liquid phase volume fraction = 0.999000063378  Min(alpha.liquid) = -7.0356821631e-16  Max(alpha.liquid) = 1
smoothSolver:  Solving for Ux, Initial residual = 0.313159626717, Final residual = 4.43773708454e-17, No Iterations 15
smoothSolver:  Solving for Uy, Initial residual = 0.480961557051, Final residual = 6.56875972431e-17, No Iterations 15
smoothSolver:  Solving for Uz, Initial residual = 0.511252516563, Final residual = 7.0898889588e-17, No Iterations 15
smoothSolver:  Solving for T, Initial residual = 2.39106876445e-10, Final residual = 1.16785043878e-13, No Iterations 15
min/max(T) = 373, 378.024799606
DICPCG:  Solving for p_rgh, Initial residual = 0.0148753702565, Final residual = 1.42748765218e-05, No Iterations 802
DICPCG:  Solving for p_rgh, Initial residual = 1.34168857735e-05, Final residual = 1.32667382097e-08, No Iterations 825
DICPCG:  Solving for p_rgh, Initial residual = 1.35477624281e-08, Final residual = 9.89887680048e-10, No Iterations 152
DICPCG:  Solving for p_rgh, Initial residual = 9.90455985475e-10, Final residual = 6.92593446361e-10, No Iterations 10
ExecutionTime = 26.04 s  ClockTime = 27 s

Courant Number mean: 3.36289394607e-08 max: 0.0197751718742
Interface Courant Number mean: 1.69044601428e-13 max: 1.72619161056e-05
deltaT = 1.69300277151e-15
Time = 1.250280807e-06

PIMPLE: iteration 1
DICPCG:  Solving for mDotSmear, Initial residual = 0.999999999982, Final residual = 8.38000052202e-07, No Iterations 49
MULES: Solving for alpha.liquid
MULES: Solving for alpha.liquid
Liquid phase volume fraction = 0.999000063387  Min(alpha.liquid) = -5.74095214798e-16  Max(alpha.liquid) = 1
MULES: Solving for alpha.liquid
MULES: Solving for alpha.liquid
Liquid phase volume fraction = 0.999000063397  Min(alpha.liquid) = -1.11920209981e-15  Max(alpha.liquid) = 1
smoothSolver:  Solving for Ux, Initial residual = 0.126131591772, Final residual = 2.4771009824e-17, No Iterations 15
smoothSolver:  Solving for Uy, Initial residual = 0.28413999408, Final residual = 5.47682433436e-17, No Iterations 15
smoothSolver:  Solving for Uz, Initial residual = 0.300765430272, Final residual = 5.93643823691e-17, No Iterations 15
smoothSolver:  Solving for T, Initial residual = 1.56414722032e-10, Final residual = 1.16220940128e-13, No Iterations 15
min/max(T) = 373, 378.024799606
DICPCG:  Solving for p_rgh, Initial residual = 0.0247419774512, Final residual = 2.46561920593e-05, No Iterations 801
DICPCG:  Solving for p_rgh, Initial residual = 1.03747190135e-05, Final residual = 1.03254447783e-08, No Iterations 826
DICPCG:  Solving for p_rgh, Initial residual = 1.04930642817e-08, Final residual = 9.73073167087e-10, No Iterations 128
DICPCG:  Solving for p_rgh, Initial residual = 9.73143032973e-10, Final residual = 6.74554863382e-10, No Iterations 10
ExecutionTime = 26.66 s  ClockTime = 27 s

Courant Number mean: 2.11057186782e-08 max: 0.00455916521976
Interface Courant Number mean: 1.02754190683e-13 max: 1.0659048584e-05
deltaT = 2.03160332582e-15
Time = 1.250280809e-06

PIMPLE: iteration 1
DICPCG:  Solving for mDotSmear, Initial residual = 0.999999999982, Final residual = 8.38008908376e-07, No Iterations 49
MULES: Solving for alpha.liquid
MULES: Solving for alpha.liquid
Liquid phase volume fraction = 0.999000063383  Min(alpha.liquid) = -3.97261592889e-16  Max(alpha.liquid) = 1
MULES: Solving for alpha.liquid
MULES: Solving for alpha.liquid
Liquid phase volume fraction = 0.999000063368  Min(alpha.liquid) = -4.13841534758e-15  Max(alpha.liquid) = 1
smoothSolver:  Solving for Ux, Initial residual = 0.331126515995, Final residual = 4.47294706096e-17, No Iterations 15
smoothSolver:  Solving for Uy, Initial residual = 0.491644968988, Final residual = 6.64662633744e-17, No Iterations 15
smoothSolver:  Solving for Uz, Initial residual = 0.519072412929, Final residual = 7.08133144867e-17, No Iterations 15
smoothSolver:  Solving for T, Initial residual = 2.23583376728e-10, Final residual = 1.19187375858e-13, No Iterations 15
min/max(T) = 373, 378.024799606
DICPCG:  Solving for p_rgh, Initial residual = 0.0147037064642, Final residual = 1.46779997502e-05, No Iterations 801
DICPCG:  Solving for p_rgh, Initial residual = 1.43957652556e-05, Final residual = 1.42423949802e-08, No Iterations 825
DICPCG:  Solving for p_rgh, Initial residual = 1.45081126551e-08, Final residual = 9.93350642959e-10, No Iterations 156
DICPCG:  Solving for p_rgh, Initial residual = 9.93888028439e-10, Final residual = 6.39021473241e-10, No Iterations 10
ExecutionTime = 27.3 s  ClockTime = 28 s

Courant Number mean: 3.11688168583e-08 max: 0.020340701101
Interface Courant Number mean: 1.54611406638e-13 max: 1.58779016136e-05
deltaT = 9.98787266834e-16
Time = 1.25028081e-06

PIMPLE: iteration 1
DICPCG:  Solving for mDotSmear, Initial residual = 0.999999999982, Final residual = 8.37970056865e-07, No Iterations 49
MULES: Solving for alpha.liquid
MULES: Solving for alpha.liquid
Liquid phase volume fraction = 0.999000063377  Min(alpha.liquid) = -6.06826669541e-15  Max(alpha.liquid) = 1
MULES: Solving for alpha.liquid
MULES: Solving for alpha.liquid
Liquid phase volume fraction = 0.999000063386  Min(alpha.liquid) = -6.00990579515e-15  Max(alpha.liquid) = 1
smoothSolver:  Solving for Ux, Initial residual = 0.125345466878, Final residual = 2.54014708229e-17, No Iterations 15
smoothSolver:  Solving for Uy, Initial residual = 0.281399221053, Final residual = 5.58974353817e-17, No Iterations 15
smoothSolver:  Solving for Uz, Initial residual = 0.292103697984, Final residual = 5.84683445745e-17, No Iterations 15
smoothSolver:  Solving for T, Initial residual = 1.39725419135e-10, Final residual = 1.19277885455e-13, No Iterations 15
min/max(T) = 373, 378.024799605
[...]
DICPCG:  Solving for p_rgh, Initial residual = 5.92488810595e-07, Final residual = 9.84807032268e-10, No Iterations 928
DICPCG:  Solving for p_rgh, Initial residual = 1.83281484024e-09, Final residual = 9.88868734824e-10, No Iterations 260
ExecutionTime = 1036.36 s  ClockTime = 1056 s

Courant Number mean: 3.4042078969e-11 max: 0.0121662801278
Interface Courant Number mean: 1.57873557323e-19 max: 1.62664804369e-11
deltaT = 1.10983713417e-115
Time = 1.250280816e-06

PIMPLE: iteration 1
DICPCG:  Solving for mDotSmear, Initial residual = 1, Final residual = 8.57424260654e-07, No Iterations 48
MULES: Solving for alpha.liquid
MULES: Solving for alpha.liquid
Liquid phase volume fraction = 0.999000063356  Min(alpha.liquid) = -9.03800150014e-12  Max(alpha.liquid) = 1
MULES: Solving for alpha.liquid
MULES: Solving for alpha.liquid
Liquid phase volume fraction = 0.999000063356  Min(alpha.liquid) = -9.03766813399e-12  Max(alpha.liquid) = 1
smoothSolver:  Solving for Ux, Initial residual = 0.000676380080244, Final residual = 4.12070033286e-19, No Iterations 15
smoothSolver:  Solving for Uy, Initial residual = 0.000364517877115, Final residual = 1.86461467284e-19, No Iterations 15
smoothSolver:  Solving for Uz, Initial residual = 0.000130120252431, Final residual = 1.18609852805e-19, No Iterations 15
smoothSolver:  Solving for T, Initial residual = 1.40653215482e-13, Final residual = 9.82126713677e-14, No Iterations 15
min/max(T) = 373, 378.024799604
DICPCG:  Solving for p_rgh, Initial residual = 0.190043871737, Final residual = 0.000188908984913, No Iterations 315
DICPCG:  Solving for p_rgh, Initial residual = 0.00036894387478, Final residual = 3.67869942814e-07, No Iterations 976
DICPCG:  Solving for p_rgh, Initial residual = 5.93035359901e-07, Final residual = 9.91090595462e-10, No Iterations 928
DICPCG:  Solving for p_rgh, Initial residual = 1.83915281416e-09, Final residual = 9.8836894743e-10, No Iterations 261
ExecutionTime = 1037.18 s  ClockTime = 1057 s

Courant Number mean: 3.404195936e-11 max: 0.0121662801278
Interface Courant Number mean: 1.5839479653e-19 max: 1.63381273555e-11
deltaT = 9.12223886437e-116
Time = 1.250280816e-06

PIMPLE: iteration 1
DICPCG:  Solving for mDotSmear, Initial residual = 1, Final residual = 8.57430299241e-07, No Iterations 48
MULES: Solving for alpha.liquid
MULES: Solving for alpha.liquid
Liquid phase volume fraction = 0.999000063356  Min(alpha.liquid) = -9.03733477604e-12  Max(alpha.liquid) = 1
MULES: Solving for alpha.liquid
MULES: Solving for alpha.liquid
Liquid phase volume fraction = 0.999000063356  Min(alpha.liquid) = -9.03700140988e-12  Max(alpha.liquid) = 1
smoothSolver:  Solving for Ux, Initial residual = 0.000676272758195, Final residual = 3.35579449096e-19, No Iterations 15
smoothSolver:  Solving for Uy, Initial residual = 0.000364488601225, Final residual = 2.01796354514e-19, No Iterations 15
smoothSolver:  Solving for Uz, Initial residual = 0.000130108512107, Final residual = 4.81124024097e-20, No Iterations 15
smoothSolver:  Solving for T, Initial residual = 1.35599839076e-13, Final residual = 9.7044719317e-14, No Iterations 15
min/max(T) = 373, 378.024799604
DICPCG:  Solving for p_rgh, Initial residual = 0.190053389042, Final residual = 0.000189083210926, No Iterations 315
DICPCG:  Solving for p_rgh, Initial residual = 0.000369078407178, Final residual = 3.67653816321e-07, No Iterations 976
DICPCG:  Solving for p_rgh, Initial residual = 5.92787786919e-07, Final residual = 9.89878667709e-10, No Iterations 928
DICPCG:  Solving for p_rgh, Initial residual = 1.83789247316e-09, Final residual = 9.96104874477e-10, No Iterations 261
ExecutionTime = 1037.98 s  ClockTime = 1058 s

Courant Number mean: 3.40420789673e-11 max: 0.0121662801278
Interface Courant Number mean: 1.57873662756e-19 max: 1.6266482222e-11
deltaT = 7.49796878628e-116
Time = 1.250280816e-06

PIMPLE: iteration 1
DICPCG:  Solving for mDotSmear, Initial residual = 1, Final residual = 8.5743623955e-07, No Iterations 48
MULES: Solving for alpha.liquid
MULES: Solving for alpha.liquid
Liquid phase volume fraction = 0.999000063356  Min(alpha.liquid) = -9.03666805193e-12  Max(alpha.liquid) = 1
MULES: Solving for alpha.liquid
MULES: Solving for alpha.liquid
Liquid phase volume fraction = 0.999000063356  Min(alpha.liquid) = -9.03633468577e-12  Max(alpha.liquid) = 1
smoothSolver:  Solving for Ux, Initial residual = 0.000676380079943, Final residual = 5.13507019578e-19, No Iterations 15
smoothSolver:  Solving for Uy, Initial residual = 0.00036451787682, Final residual = 1.58584800368e-19, No Iterations 15
smoothSolver:  Solving for Uz, Initial residual = 0.000130120252413, Final residual = 9.41503096561e-20, No Iterations 15
smoothSolver:  Solving for T, Initial residual = 1.3537853747e-13, Final residual = 1.01217201406e-13, No Iterations 15
min/max(T) = 373, 378.024799604
DICPCG:  Solving for p_rgh, Initial residual = 0.19004387176, Final residual = 0.000188665418525, No Iterations 315
DICPCG:  Solving for p_rgh, Initial residual = 0.00036873820785, Final residual = 3.67839202259e-07, No Iterations 976
DICPCG:  Solving for p_rgh, Initial residual = 5.93000041666e-07, Final residual = 9.90153063359e-10, No Iterations 928
DICPCG:  Solving for p_rgh, Initial residual = 1.8381755322e-09, Final residual = 9.86171396281e-10, No Iterations 260
ExecutionTime = 1038.79 s  ClockTime = 1059 s

Courant Number mean: 3.4041959354e-11 max: 0.0121662801278
Interface Courant Number mean: 1.5839473855e-19 max: 1.63381304544e-11
deltaT = 6.16290986852e-116
Time = 1.250280816e-06

PIMPLE: iteration 1
DICPCG:  Solving for mDotSmear, Initial residual = 1, Final residual = 8.57442076685e-07, No Iterations 48
MULES: Solving for alpha.liquid
MULES: Solving for alpha.liquid
Liquid phase volume fraction = 0.999000063356  Min(alpha.liquid) = -9.03600132781e-12  Max(alpha.liquid) = 1
MULES: Solving for alpha.liquid
MULES: Solving for alpha.liquid
Liquid phase volume fraction = 0.999000063356  Min(alpha.liquid) = -9.03566796165e-12  Max(alpha.liquid) = 1
smoothSolver:  Solving for Ux, Initial residual = 0.000676272755333, Final residual = 5.53701829198e-19, No Iterations 15
smoothSolver:  Solving for Uy, Initial residual = 0.000364488600193, Final residual = 1.94520648778e-19, No Iterations 15
smoothSolver:  Solving for Uz, Initial residual = 0.000130108511742, Final residual = 7.44293834903e-20, No Iterations 15
smoothSolver:  Solving for T, Initial residual = 1.4155558679e-13, Final residual = 9.96640198095e-14, No Iterations 15
min/max(T) = 373, 378.024799604
[38] #0  Foam::error::printStack(Foam::Ostream&) at ??:?
[38] #1  Foam::sigFpe::sigHandler(int) at ??:?
[38] #2  ? in /lib64/libpthread.so.0
[38] #3  Foam::scalarProduct<double, double>::type Foam::sumProd<double>(Foam::UList<double> const&, Foam::UList<double> const&) at ??:?
[38] #4  Foam::PCG::scalarSolve(Foam::Field<double>&, Foam::Field<double> const&, unsigned char) const at ??:?
[38] #5  Foam::PCG::solve(Foam::Field<double>&, Foam::Field<double> const&, unsigned char) const at ??:?
[38] #6  Foam::fvMatrix<double>::solveSegregated(Foam::dictionary const&) at ??:?
[38] #7  Foam::fvMesh::solve(Foam::fvMatrix<double>&, Foam::dictionary const&) const at ??:?
[38] #8  ? at ??:?
[38] #9  __libc_start_main in /lib64/libc.so.6
[38] #10  ? at ??:?
[node2:187770:0:187770] Caught signal 8 (Floating point exception: tkill(2) or tgkill(2))
==== backtrace ====
 0 0x000000000000f59b raise()  ???:0
 1 0x000000000000f6d0 _L_unlock_13()  funlockfile.c:0
 2 0x0000000000af255c Foam::sumProd<double>()  ???:0
 3 0x000000000079d8fc Foam::PCG::scalarSolve()  ???:0
 4 0x000000000079f821 Foam::PCG::solve()  ???:0
 5 0x00000000019b2b7a Foam::fvMatrix<double>::solveSegregated()  ???:0
 6 0x000000000073014f Foam::fvMesh::solve()  ???:0
 7 0x00000000004397b4 main()  ???:0
 8 0x0000000000022445 __libc_start_main()  ???:0
 9 0x000000000042dce9 _start()  ???:0
===================

===================================================================================
=   BAD TERMINATION OF ONE OF YOUR APPLICATION PROCESSES
=   RANK 0 PID 187729 RUNNING AT node2
=   KILLED BY SIGNAL: 9 (Killed)
===================================================================================

===================================================================================
=   BAD TERMINATION OF ONE OF YOUR APPLICATION PROCESSES
=   RANK 1 PID 187730 RUNNING AT node2
=   KILLED BY SIGNAL: 9 (Killed)
===================================================================================

===================================================================================
=   BAD TERMINATION OF ONE OF YOUR APPLICATION PROCESSES
=   RANK 2 PID 187731 RUNNING AT node2
=   KILLED BY SIGNAL: 9 (Killed)
===================================================================================

===================================================================================
=   BAD TERMINATION OF ONE OF YOUR APPLICATION PROCESSES
=   RANK 3 PID 187732 RUNNING AT node2
=   KILLED BY SIGNAL: 9 (Killed)
===================================================================================

===================================================================================
=   BAD TERMINATION OF ONE OF YOUR APPLICATION PROCESSES
=   RANK 4 PID 187733 RUNNING AT node2
=   KILLED BY SIGNAL: 9 (Killed)
===================================================================================

===================================================================================
=   BAD TERMINATION OF ONE OF YOUR APPLICATION PROCESSES
=   RANK 5 PID 187734 RUNNING AT node2
=   KILLED BY SIGNAL: 9 (Killed)
===================================================================================

===================================================================================
=   BAD TERMINATION OF ONE OF YOUR APPLICATION PROCESSES
=   RANK 6 PID 187735 RUNNING AT node2
=   KILLED BY SIGNAL: 9 (Killed)
===================================================================================

===================================================================================
=   BAD TERMINATION OF ONE OF YOUR APPLICATION PROCESSES
=   RANK 7 PID 187736 RUNNING AT node2
=   KILLED BY SIGNAL: 9 (Killed)
===================================================================================

===================================================================================
=   BAD TERMINATION OF ONE OF YOUR APPLICATION PROCESSES
=   RANK 8 PID 187737 RUNNING AT node2
=   KILLED BY SIGNAL: 9 (Killed)
===================================================================================

===================================================================================
=   BAD TERMINATION OF ONE OF YOUR APPLICATION PROCESSES
=   RANK 9 PID 187738 RUNNING AT node2
=   KILLED BY SIGNAL: 9 (Killed)
===================================================================================

===================================================================================
=   BAD TERMINATION OF ONE OF YOUR APPLICATION PROCESSES
=   RANK 10 PID 187739 RUNNING AT node2
=   KILLED BY SIGNAL: 9 (Killed)
===================================================================================

===================================================================================
=   BAD TERMINATION OF ONE OF YOUR APPLICATION PROCESSES
=   RANK 11 PID 187740 RUNNING AT node2
=   KILLED BY SIGNAL: 9 (Killed)
===================================================================================

===================================================================================
=   BAD TERMINATION OF ONE OF YOUR APPLICATION PROCESSES
=   RANK 12 PID 187741 RUNNING AT node2
=   KILLED BY SIGNAL: 9 (Killed)
===================================================================================

===================================================================================
=   BAD TERMINATION OF ONE OF YOUR APPLICATION PROCESSES
=   RANK 13 PID 187742 RUNNING AT node2
=   KILLED BY SIGNAL: 9 (Killed)
===================================================================================

===================================================================================
=   BAD TERMINATION OF ONE OF YOUR APPLICATION PROCESSES
=   RANK 14 PID 187743 RUNNING AT node2
=   KILLED BY SIGNAL: 9 (Killed)
===================================================================================

===================================================================================
=   BAD TERMINATION OF ONE OF YOUR APPLICATION PROCESSES
=   RANK 15 PID 187744 RUNNING AT node2
=   KILLED BY SIGNAL: 9 (Killed)
===================================================================================

===================================================================================
=   BAD TERMINATION OF ONE OF YOUR APPLICATION PROCESSES
=   RANK 16 PID 187745 RUNNING AT node2
=   KILLED BY SIGNAL: 9 (Killed)
===================================================================================

===================================================================================
=   BAD TERMINATION OF ONE OF YOUR APPLICATION PROCESSES
=   RANK 17 PID 187746 RUNNING AT node2
=   KILLED BY SIGNAL: 9 (Killed)
===================================================================================

===================================================================================
=   BAD TERMINATION OF ONE OF YOUR APPLICATION PROCESSES
=   RANK 18 PID 187747 RUNNING AT node2
=   KILLED BY SIGNAL: 9 (Killed)
===================================================================================

===================================================================================
=   BAD TERMINATION OF ONE OF YOUR APPLICATION PROCESSES
=   RANK 19 PID 187748 RUNNING AT node2
=   KILLED BY SIGNAL: 9 (Killed)
===================================================================================

===================================================================================
=   BAD TERMINATION OF ONE OF YOUR APPLICATION PROCESSES
=   RANK 20 PID 187749 RUNNING AT node2
=   KILLED BY SIGNAL: 9 (Killed)
===================================================================================

===================================================================================
=   BAD TERMINATION OF ONE OF YOUR APPLICATION PROCESSES
=   RANK 21 PID 187750 RUNNING AT node2
=   KILLED BY SIGNAL: 9 (Killed)
===================================================================================

===================================================================================
=   BAD TERMINATION OF ONE OF YOUR APPLICATION PROCESSES
=   RANK 22 PID 187751 RUNNING AT node2
=   KILLED BY SIGNAL: 9 (Killed)
===================================================================================

===================================================================================
=   BAD TERMINATION OF ONE OF YOUR APPLICATION PROCESSES
=   RANK 23 PID 187752 RUNNING AT node2
=   KILLED BY SIGNAL: 9 (Killed)
===================================================================================

===================================================================================
=   BAD TERMINATION OF ONE OF YOUR APPLICATION PROCESSES
=   RANK 24 PID 187753 RUNNING AT node2
=   KILLED BY SIGNAL: 9 (Killed)
===================================================================================

===================================================================================
=   BAD TERMINATION OF ONE OF YOUR APPLICATION PROCESSES
=   RANK 25 PID 187754 RUNNING AT node2
=   KILLED BY SIGNAL: 9 (Killed)
===================================================================================

===================================================================================
=   BAD TERMINATION OF ONE OF YOUR APPLICATION PROCESSES
=   RANK 26 PID 187757 RUNNING AT node2
=   KILLED BY SIGNAL: 9 (Killed)
===================================================================================

===================================================================================
=   BAD TERMINATION OF ONE OF YOUR APPLICATION PROCESSES
=   RANK 27 PID 187758 RUNNING AT node2
=   KILLED BY SIGNAL: 9 (Killed)
===================================================================================

===================================================================================
=   BAD TERMINATION OF ONE OF YOUR APPLICATION PROCESSES
=   RANK 28 PID 187759 RUNNING AT node2
=   KILLED BY SIGNAL: 9 (Killed)
===================================================================================

===================================================================================
=   BAD TERMINATION OF ONE OF YOUR APPLICATION PROCESSES
=   RANK 29 PID 187760 RUNNING AT node2
=   KILLED BY SIGNAL: 9 (Killed)
===================================================================================

===================================================================================
=   BAD TERMINATION OF ONE OF YOUR APPLICATION PROCESSES
=   RANK 30 PID 187762 RUNNING AT node2
=   KILLED BY SIGNAL: 9 (Killed)
===================================================================================

===================================================================================
=   BAD TERMINATION OF ONE OF YOUR APPLICATION PROCESSES
=   RANK 31 PID 187763 RUNNING AT node2
=   KILLED BY SIGNAL: 9 (Killed)
===================================================================================

===================================================================================
=   BAD TERMINATION OF ONE OF YOUR APPLICATION PROCESSES
=   RANK 32 PID 187764 RUNNING AT node2
=   KILLED BY SIGNAL: 9 (Killed)
===================================================================================

===================================================================================
=   BAD TERMINATION OF ONE OF YOUR APPLICATION PROCESSES
=   RANK 33 PID 187765 RUNNING AT node2
=   KILLED BY SIGNAL: 9 (Killed)
===================================================================================

===================================================================================
=   BAD TERMINATION OF ONE OF YOUR APPLICATION PROCESSES
=   RANK 34 PID 187766 RUNNING AT node2
=   KILLED BY SIGNAL: 9 (Killed)
===================================================================================

===================================================================================
=   BAD TERMINATION OF ONE OF YOUR APPLICATION PROCESSES
=   RANK 35 PID 187767 RUNNING AT node2
=   KILLED BY SIGNAL: 9 (Killed)
===================================================================================

===================================================================================
=   BAD TERMINATION OF ONE OF YOUR APPLICATION PROCESSES
=   RANK 36 PID 187768 RUNNING AT node2
=   KILLED BY SIGNAL: 9 (Killed)
===================================================================================

===================================================================================
=   BAD TERMINATION OF ONE OF YOUR APPLICATION PROCESSES
=   RANK 37 PID 187769 RUNNING AT node2
=   KILLED BY SIGNAL: 9 (Killed)
===================================================================================

===================================================================================
=   BAD TERMINATION OF ONE OF YOUR APPLICATION PROCESSES
=   RANK 38 PID 187770 RUNNING AT node2
=   KILLED BY SIGNAL: 8 (Floating point exception)
===================================================================================

===================================================================================
=   BAD TERMINATION OF ONE OF YOUR APPLICATION PROCESSES
=   RANK 39 PID 187771 RUNNING AT node2
=   KILLED BY SIGNAL: 9 (Killed)
===================================================================================
